# MF2K NAME file
#
# MODFLOW USG
# Output Files
LIST            1 "test3_usg1_bak.out"
DATA(BINARY)    2 "test3_usg1_bak.hed"
DATA(BINARY)   40 "test3_usg1_bak.ccf"
#
# Global Input Files
DISU            3 "test3_usg1_bak.disu"
#
# Flow Process Input Files
BAS6            4 "test3_usg1_bak.ba6"
LPF             7 "test3_usg1_bak.lpf"
OC              8 "test3_usg1_bak.oc"
WEL             9 "test3_usg1_bak.wel"
CHD            10 "test3_usg1_bak.chd"
SMS            11 "test3_usg1_bak.sms"
GNC            12 "test3_usg1_bak.gnc"
