<!DOCTYPE qgis PUBLIC 'http://mrcc.com/qgis.dtd' 'SYSTEM'>
<qgis version="3.0.0-Girona" projectname="">
  <title></title>
  <autotransaction active="0"/>
  <evaluateDefaultValues active="0"/>
  <trust active="0"/>
  <projectCrs>
    <spatialrefsys>
      <proj4>+proj=aea +lat_1=27.5 +lat_2=35 +lat_0=31.25 +lon_0=-100 +x_0=1500000 +y_0=6000000 +ellps=GRS80 +towgs84=0,0,0,0,0,0,0 +units=us-ft +no_defs</proj4>
      <srsid>100001</srsid>
      <srid>0</srid>
      <authid>USER:100001</authid>
      <description> * Generated CRS (+proj=aea +lat_1=27.5 +lat_2=35 +lat_0=31.25 +lon_0=-100 +x_0=1500000 +y_0=6000000 +ellps=GRS80 +towgs84=0,0,0,0,0,0,0 +units=us-ft +no_defs)</description>
      <projectionacronym>aea</projectionacronym>
      <ellipsoidacronym>GRS80</ellipsoidacronym>
      <geographicflag>false</geographicflag>
    </spatialrefsys>
  </projectCrs>
  <layer-tree-group>
    <customproperties/>
    <layer-tree-layer expanded="1" name="wellinfo" id="wellinfo_0e38b2d1_cd8f_4127_a42b_167cbc50a081" source="S:/AUS/SANWS.M001.MODEL/files_guyton/pumping/wellinfo/wellinfo.shp" providerKey="ogr" checked="Qt::Checked">
      <customproperties/>
    </layer-tree-layer>
    <layer-tree-layer expanded="1" name="grid" id="grid_400a9d03_d663_4b9e_a876_f8c6f93a9cbb" source="S:/AUS/SANWS.M001.MODEL/files_guyton/pumping/grid/grid.shp" providerKey="ogr" checked="Qt::Checked">
      <customproperties/>
    </layer-tree-layer>
    <layer-tree-layer expanded="1" name="grid" id="grid_f489351e_40c2_4f0d_8d0b_3f09bebafa34" source="./grid/grid.shp" providerKey="ogr" checked="Qt::Checked">
      <customproperties/>
    </layer-tree-layer>
    <layer-tree-layer expanded="0" name="fig_20_block_hk_polygon" id="fig_20_block_hk_polygon_23fee83a_54b9_4ff4_898c_5a5388d252aa" source="S:/PSC/CHPRC.C003.HANOFF/Rel.060/MODPATH_testing/digitize/fig_20_block_hk_polygon.shp" providerKey="ogr" checked="Qt::Unchecked">
      <customproperties/>
    </layer-tree-layer>
    <layer-tree-layer expanded="1" name="shafer_block_hk" id="shafer_block_hk_c1bf6056_b6fa_4292_b02b_18fb71838bc9" source="./gwpath_rasters/shafer_block_hk.tif" providerKey="gdal" checked="Qt::Checked">
      <customproperties/>
    </layer-tree-layer>
    <layer-tree-layer expanded="0" name="fig_21_capture_zone" id="fig_21_capture_zone_9b16ec89_9de0_4a80_9ca7_3c47b4d74d96" source="./gwpath_rasters/fig_21_capture_zone.tif" providerKey="gdal" checked="Qt::Unchecked">
      <customproperties/>
    </layer-tree-layer>
    <layer-tree-layer expanded="0" name="fig_20_block_hk" id="fig_20_block_hk_11f08728_cd17_408d_8f87_1133e823d7de" source="./gwpath_rasters/fig_20_block_hk.tif" providerKey="gdal" checked="Qt::Checked">
      <customproperties/>
    </layer-tree-layer>
    <layer-tree-layer expanded="0" name="fig_19_head" id="fig_19_head_146744a3_abbd_464a_8108_88cc9959e8aa" source="./gwpath_rasters/fig_19_head.tif" providerKey="gdal" checked="Qt::Unchecked">
      <customproperties/>
    </layer-tree-layer>
    <layer-tree-layer expanded="0" name="fig_18_backwards_pathlines" id="fig_18_backwards_pathlines_3353cdfb_b9c0_4362_9578_ab6cb252fdf5" source="./gwpath_rasters/fig_18_backwards_pathlines.tif" providerKey="gdal" checked="Qt::Unchecked">
      <customproperties/>
    </layer-tree-layer>
    <layer-tree-layer expanded="0" name="fig_17_forawd_pathlines" id="fig_17_forawd_pathlines_f77c5b69_194f_496e_a998_7c6db8e7a09e" source="./gwpath_rasters/fig_17_forawd_pathlines.tif" providerKey="gdal" checked="Qt::Unchecked">
      <customproperties/>
    </layer-tree-layer>
    <layer-tree-layer expanded="0" name="fig_16_sourcesy" id="fig_16_sourcesy_9007b149_6ff3_4642_94bd_4ff95c6faa6a" source="./gwpath_rasters/fig_16_sourcesy.tif" providerKey="gdal" checked="Qt::Unchecked">
      <customproperties/>
    </layer-tree-layer>
    <layer-tree-layer expanded="0" name="fig_15_prosity" id="fig_15_prosity_ecdf5ad8_15fe_42f0_adfb_8fb1c6988b08" source="./gwpath_rasters/fig_15_prosity.tif" providerKey="gdal" checked="Qt::Unchecked">
      <customproperties/>
    </layer-tree-layer>
    <layer-tree-layer expanded="0" name="fig_14_vk" id="fig_14_vk_2138b78b_21ca_44c4_8119_8e2d701571f7" source="./gwpath_rasters/fig_14_vk.tif" providerKey="gdal" checked="Qt::Unchecked">
      <customproperties/>
    </layer-tree-layer>
    <layer-tree-layer expanded="0" name="fig_13_hk" id="fig_13_hk_85f3ed07_fc16_4d60_99e5_064b338f3ef6" source="./gwpath_rasters/fig_13_hk.tif" providerKey="gdal" checked="Qt::Unchecked">
      <customproperties/>
    </layer-tree-layer>
    <layer-tree-layer expanded="0" name="fig_12_head" id="fig_12_head_07c7c5a5_8efd_471e_a474_f4b60caec08d" source="./gwpath_rasters/fig_12_head.tif" providerKey="gdal" checked="Qt::Unchecked">
      <customproperties/>
    </layer-tree-layer>
    <layer-tree-layer expanded="1" name="starting_location" id="starting_location_1b4a4500_c8d8_449c_9bbe_6caf8e535ce5" source="./gwpath_rasters/starting_location.shp" providerKey="ogr" checked="Qt::Checked">
      <customproperties/>
    </layer-tree-layer>
    <layer-tree-layer expanded="1" name="Google Maps" id="Google_Maps_60289f5d_8d67_4856_ad03_2cdcb5eec864" source="type=xyz&amp;zmin=0&amp;zmax=19&amp;url=https://mt1.google.com/vt/lyrs%3Dm%26x%3D{x}%26y%3D{y}%26z%3D{z}" providerKey="wms" checked="Qt::Checked">
      <customproperties/>
    </layer-tree-layer>
    <custom-order enabled="0">
      <item>starting_location_1b4a4500_c8d8_449c_9bbe_6caf8e535ce5</item>
      <item>Google_Maps_60289f5d_8d67_4856_ad03_2cdcb5eec864</item>
      <item>fig_21_capture_zone_9b16ec89_9de0_4a80_9ca7_3c47b4d74d96</item>
      <item>fig_12_head_07c7c5a5_8efd_471e_a474_f4b60caec08d</item>
      <item>fig_13_hk_85f3ed07_fc16_4d60_99e5_064b338f3ef6</item>
      <item>fig_14_vk_2138b78b_21ca_44c4_8119_8e2d701571f7</item>
      <item>fig_15_prosity_ecdf5ad8_15fe_42f0_adfb_8fb1c6988b08</item>
      <item>fig_16_sourcesy_9007b149_6ff3_4642_94bd_4ff95c6faa6a</item>
      <item>fig_17_forawd_pathlines_f77c5b69_194f_496e_a998_7c6db8e7a09e</item>
      <item>fig_18_backwards_pathlines_3353cdfb_b9c0_4362_9578_ab6cb252fdf5</item>
      <item>fig_19_head_146744a3_abbd_464a_8108_88cc9959e8aa</item>
      <item>fig_20_block_hk_11f08728_cd17_408d_8f87_1133e823d7de</item>
      <item>wellinfo_0e38b2d1_cd8f_4127_a42b_167cbc50a081</item>
      <item>grid_400a9d03_d663_4b9e_a876_f8c6f93a9cbb</item>
      <item>grid_f489351e_40c2_4f0d_8d0b_3f09bebafa34</item>
      <item>fig_20_block_hk_polygon_23fee83a_54b9_4ff4_898c_5a5388d252aa</item>
      <item>shafer_block_hk_c1bf6056_b6fa_4292_b02b_18fb71838bc9</item>
    </custom-order>
  </layer-tree-group>
  <snapping-settings type="1" enabled="0" mode="2" tolerance="12" intersection-snapping="0" unit="1">
    <individual-layer-settings>
      <layer-setting type="1" enabled="0" units="1" tolerance="12" id="wellinfo_0e38b2d1_cd8f_4127_a42b_167cbc50a081"/>
      <layer-setting type="1" enabled="0" units="1" tolerance="12" id="grid_400a9d03_d663_4b9e_a876_f8c6f93a9cbb"/>
      <layer-setting type="1" enabled="0" units="1" tolerance="12" id="grid_f489351e_40c2_4f0d_8d0b_3f09bebafa34"/>
      <layer-setting type="1" enabled="0" units="1" tolerance="12" id="fig_20_block_hk_polygon_23fee83a_54b9_4ff4_898c_5a5388d252aa"/>
      <layer-setting type="1" enabled="0" units="1" tolerance="12" id="starting_location_1b4a4500_c8d8_449c_9bbe_6caf8e535ce5"/>
    </individual-layer-settings>
  </snapping-settings>
  <relations/>
  <mapcanvas name="theMapCanvas" annotationsVisible="1">
    <units>feet</units>
    <extent>
      <xmin>5425519.64339194726198912</xmin>
      <ymin>18897375.75235592201352119</ymin>
      <xmax>5451578.53269874770194292</xmax>
      <ymax>18953298.75430787727236748</ymax>
    </extent>
    <rotation>0</rotation>
    <destinationsrs>
      <spatialrefsys>
        <proj4>+proj=aea +lat_1=27.5 +lat_2=35 +lat_0=31.25 +lon_0=-100 +x_0=1500000 +y_0=6000000 +ellps=GRS80 +towgs84=0,0,0,0,0,0,0 +units=us-ft +no_defs</proj4>
        <srsid>100001</srsid>
        <srid>0</srid>
        <authid>USER:100001</authid>
        <description> * Generated CRS (+proj=aea +lat_1=27.5 +lat_2=35 +lat_0=31.25 +lon_0=-100 +x_0=1500000 +y_0=6000000 +ellps=GRS80 +towgs84=0,0,0,0,0,0,0 +units=us-ft +no_defs)</description>
        <projectionacronym>aea</projectionacronym>
        <ellipsoidacronym>GRS80</ellipsoidacronym>
        <geographicflag>false</geographicflag>
      </spatialrefsys>
    </destinationsrs>
    <rendermaptile>0</rendermaptile>
  </mapcanvas>
  <legend updateDrawingOrder="true">
    <legendlayer drawingOrder="-1" name="wellinfo" showFeatureCount="0" open="true" checked="Qt::Checked">
      <filegroup hidden="false" open="true">
        <legendlayerfile visible="1" isInOverview="0" layerid="wellinfo_0e38b2d1_cd8f_4127_a42b_167cbc50a081"/>
      </filegroup>
    </legendlayer>
    <legendlayer drawingOrder="-1" name="grid" showFeatureCount="0" open="true" checked="Qt::Checked">
      <filegroup hidden="false" open="true">
        <legendlayerfile visible="1" isInOverview="0" layerid="grid_400a9d03_d663_4b9e_a876_f8c6f93a9cbb"/>
      </filegroup>
    </legendlayer>
    <legendlayer drawingOrder="-1" name="grid" showFeatureCount="0" open="true" checked="Qt::Checked">
      <filegroup hidden="false" open="true">
        <legendlayerfile visible="1" isInOverview="0" layerid="grid_f489351e_40c2_4f0d_8d0b_3f09bebafa34"/>
      </filegroup>
    </legendlayer>
    <legendlayer drawingOrder="-1" name="fig_20_block_hk_polygon" showFeatureCount="0" open="false" checked="Qt::Unchecked">
      <filegroup hidden="false" open="false">
        <legendlayerfile visible="0" isInOverview="0" layerid="fig_20_block_hk_polygon_23fee83a_54b9_4ff4_898c_5a5388d252aa"/>
      </filegroup>
    </legendlayer>
    <legendlayer drawingOrder="-1" name="shafer_block_hk" showFeatureCount="0" open="true" checked="Qt::Checked">
      <filegroup hidden="false" open="true">
        <legendlayerfile visible="1" isInOverview="0" layerid="shafer_block_hk_c1bf6056_b6fa_4292_b02b_18fb71838bc9"/>
      </filegroup>
    </legendlayer>
    <legendlayer drawingOrder="-1" name="fig_21_capture_zone" showFeatureCount="0" open="false" checked="Qt::Unchecked">
      <filegroup hidden="false" open="false">
        <legendlayerfile visible="0" isInOverview="0" layerid="fig_21_capture_zone_9b16ec89_9de0_4a80_9ca7_3c47b4d74d96"/>
      </filegroup>
    </legendlayer>
    <legendlayer drawingOrder="-1" name="fig_20_block_hk" showFeatureCount="0" open="false" checked="Qt::Checked">
      <filegroup hidden="false" open="false">
        <legendlayerfile visible="1" isInOverview="0" layerid="fig_20_block_hk_11f08728_cd17_408d_8f87_1133e823d7de"/>
      </filegroup>
    </legendlayer>
    <legendlayer drawingOrder="-1" name="fig_19_head" showFeatureCount="0" open="false" checked="Qt::Unchecked">
      <filegroup hidden="false" open="false">
        <legendlayerfile visible="0" isInOverview="0" layerid="fig_19_head_146744a3_abbd_464a_8108_88cc9959e8aa"/>
      </filegroup>
    </legendlayer>
    <legendlayer drawingOrder="-1" name="fig_18_backwards_pathlines" showFeatureCount="0" open="false" checked="Qt::Unchecked">
      <filegroup hidden="false" open="false">
        <legendlayerfile visible="0" isInOverview="0" layerid="fig_18_backwards_pathlines_3353cdfb_b9c0_4362_9578_ab6cb252fdf5"/>
      </filegroup>
    </legendlayer>
    <legendlayer drawingOrder="-1" name="fig_17_forawd_pathlines" showFeatureCount="0" open="false" checked="Qt::Unchecked">
      <filegroup hidden="false" open="false">
        <legendlayerfile visible="0" isInOverview="0" layerid="fig_17_forawd_pathlines_f77c5b69_194f_496e_a998_7c6db8e7a09e"/>
      </filegroup>
    </legendlayer>
    <legendlayer drawingOrder="-1" name="fig_16_sourcesy" showFeatureCount="0" open="false" checked="Qt::Unchecked">
      <filegroup hidden="false" open="false">
        <legendlayerfile visible="0" isInOverview="0" layerid="fig_16_sourcesy_9007b149_6ff3_4642_94bd_4ff95c6faa6a"/>
      </filegroup>
    </legendlayer>
    <legendlayer drawingOrder="-1" name="fig_15_prosity" showFeatureCount="0" open="false" checked="Qt::Unchecked">
      <filegroup hidden="false" open="false">
        <legendlayerfile visible="0" isInOverview="0" layerid="fig_15_prosity_ecdf5ad8_15fe_42f0_adfb_8fb1c6988b08"/>
      </filegroup>
    </legendlayer>
    <legendlayer drawingOrder="-1" name="fig_14_vk" showFeatureCount="0" open="false" checked="Qt::Unchecked">
      <filegroup hidden="false" open="false">
        <legendlayerfile visible="0" isInOverview="0" layerid="fig_14_vk_2138b78b_21ca_44c4_8119_8e2d701571f7"/>
      </filegroup>
    </legendlayer>
    <legendlayer drawingOrder="-1" name="fig_13_hk" showFeatureCount="0" open="false" checked="Qt::Unchecked">
      <filegroup hidden="false" open="false">
        <legendlayerfile visible="0" isInOverview="0" layerid="fig_13_hk_85f3ed07_fc16_4d60_99e5_064b338f3ef6"/>
      </filegroup>
    </legendlayer>
    <legendlayer drawingOrder="-1" name="fig_12_head" showFeatureCount="0" open="false" checked="Qt::Unchecked">
      <filegroup hidden="false" open="false">
        <legendlayerfile visible="0" isInOverview="0" layerid="fig_12_head_07c7c5a5_8efd_471e_a474_f4b60caec08d"/>
      </filegroup>
    </legendlayer>
    <legendlayer drawingOrder="-1" name="starting_location" showFeatureCount="0" open="true" checked="Qt::Checked">
      <filegroup hidden="false" open="true">
        <legendlayerfile visible="1" isInOverview="0" layerid="starting_location_1b4a4500_c8d8_449c_9bbe_6caf8e535ce5"/>
      </filegroup>
    </legendlayer>
    <legendlayer drawingOrder="-1" name="Google Maps" showFeatureCount="0" open="true" checked="Qt::Checked">
      <filegroup hidden="false" open="true">
        <legendlayerfile visible="1" isInOverview="0" layerid="Google_Maps_60289f5d_8d67_4856_ad03_2cdcb5eec864"/>
      </filegroup>
    </legendlayer>
  </legend>
  <mapViewDocks/>
  <mapViewDocks3D/>
  <projectlayers>
    <maplayer autoRefreshTime="0" refreshOnNotifyMessage="" type="raster" hasScaleBasedVisibilityFlag="0" minScale="1e+8" autoRefreshEnabled="0" maxScale="0" refreshOnNotifyEnabled="0">
      <extent>
        <xmin>-20037508.34278924390673637</xmin>
        <ymin>-20037508.34278925508260727</ymin>
        <xmax>20037508.34278924390673637</xmax>
        <ymax>20037508.34278924390673637</ymax>
      </extent>
      <id>Google_Maps_60289f5d_8d67_4856_ad03_2cdcb5eec864</id>
      <datasource>type=xyz&amp;zmin=0&amp;zmax=19&amp;url=https://mt1.google.com/vt/lyrs%3Dm%26x%3D{x}%26y%3D{y}%26z%3D{z}</datasource>
      <keywordList>
        <value></value>
      </keywordList>
      <layername>Google Maps</layername>
      <srs>
        <spatialrefsys>
          <proj4>+proj=merc +a=6378137 +b=6378137 +lat_ts=0.0 +lon_0=0.0 +x_0=0.0 +y_0=0 +k=1.0 +units=m +nadgrids=@null +wktext +no_defs</proj4>
          <srsid>3857</srsid>
          <srid>3857</srid>
          <authid>EPSG:3857</authid>
          <description>WGS 84 / Pseudo Mercator</description>
          <projectionacronym>merc</projectionacronym>
          <ellipsoidacronym>WGS84</ellipsoidacronym>
          <geographicflag>false</geographicflag>
        </spatialrefsys>
      </srs>
      <resourceMetadata>
        <identifier></identifier>
        <parentidentifier></parentidentifier>
        <language></language>
        <type></type>
        <title></title>
        <abstract></abstract>
        <fees></fees>
        <encoding></encoding>
        <crs>
          <spatialrefsys>
            <proj4></proj4>
            <srsid>0</srsid>
            <srid>0</srid>
            <authid></authid>
            <description></description>
            <projectionacronym></projectionacronym>
            <ellipsoidacronym></ellipsoidacronym>
            <geographicflag>false</geographicflag>
          </spatialrefsys>
        </crs>
        <extent/>
        <links/>
      </resourceMetadata>
      <customproperties>
        <property value="Undefined" key="identify/format"/>
      </customproperties>
      <provider>wms</provider>
      <noData>
        <noDataList bandNo="1" useSrcNoData="0"/>
      </noData>
      <map-layer-style-manager current="default">
        <map-layer-style name="default"/>
      </map-layer-style-manager>
      <pipe>
        <rasterrenderer type="singlebandcolordata" band="1" opacity="1" alphaBand="-1">
          <rasterTransparency/>
          <minMaxOrigin>
            <limits>None</limits>
            <extent>WholeRaster</extent>
            <statAccuracy>Estimated</statAccuracy>
            <cumulativeCutLower>0.02</cumulativeCutLower>
            <cumulativeCutUpper>0.98</cumulativeCutUpper>
            <stdDevFactor>2</stdDevFactor>
          </minMaxOrigin>
        </rasterrenderer>
        <brightnesscontrast contrast="0" brightness="0"/>
        <huesaturation colorizeGreen="128" colorizeStrength="100" saturation="0" colorizeOn="0" colorizeRed="255" colorizeBlue="128" grayscaleMode="0"/>
        <rasterresampler maxOversampling="2"/>
      </pipe>
      <blendMode>0</blendMode>
    </maplayer>
    <maplayer autoRefreshTime="0" refreshOnNotifyMessage="" type="raster" hasScaleBasedVisibilityFlag="0" minScale="1e+8" autoRefreshEnabled="0" maxScale="0" refreshOnNotifyEnabled="0">
      <extent>
        <xmin>5661342.80316535942256451</xmin>
        <ymin>19620009.74438977241516113</ymin>
        <xmax>5669342.80316535942256451</xmax>
        <ymax>19628009.74438977241516113</ymax>
      </extent>
      <id>fig_12_head_07c7c5a5_8efd_471e_a474_f4b60caec08d</id>
      <datasource>./gwpath_rasters/fig_12_head.tif</datasource>
      <keywordList>
        <value></value>
      </keywordList>
      <layername>fig_12_head</layername>
      <srs>
        <spatialrefsys>
          <proj4>+proj=aea +lat_1=27.5 +lat_2=35 +lat_0=31.25 +lon_0=-100 +x_0=1500000 +y_0=6000000 +ellps=GRS80 +towgs84=0,0,0,0,0,0,0 +units=us-ft +no_defs</proj4>
          <srsid>100001</srsid>
          <srid>0</srid>
          <authid>USER:100001</authid>
          <description> * Generated CRS (+proj=aea +lat_1=27.5 +lat_2=35 +lat_0=31.25 +lon_0=-100 +x_0=1500000 +y_0=6000000 +ellps=GRS80 +towgs84=0,0,0,0,0,0,0 +units=us-ft +no_defs)</description>
          <projectionacronym>aea</projectionacronym>
          <ellipsoidacronym>GRS80</ellipsoidacronym>
          <geographicflag>false</geographicflag>
        </spatialrefsys>
      </srs>
      <resourceMetadata>
        <identifier></identifier>
        <parentidentifier></parentidentifier>
        <language></language>
        <type></type>
        <title></title>
        <abstract></abstract>
        <fees></fees>
        <encoding></encoding>
        <crs>
          <spatialrefsys>
            <proj4></proj4>
            <srsid>0</srsid>
            <srid>0</srid>
            <authid></authid>
            <description></description>
            <projectionacronym></projectionacronym>
            <ellipsoidacronym></ellipsoidacronym>
            <geographicflag>false</geographicflag>
          </spatialrefsys>
        </crs>
        <extent/>
        <links/>
      </resourceMetadata>
      <customproperties>
        <property value="Value" key="identify/format"/>
      </customproperties>
      <provider>gdal</provider>
      <noData>
        <noDataList bandNo="1" useSrcNoData="0"/>
      </noData>
      <map-layer-style-manager current="default">
        <map-layer-style name="default"/>
      </map-layer-style-manager>
      <pipe>
        <rasterrenderer type="singlebandgray" grayBand="1" gradient="BlackToWhite" opacity="1" alphaBand="-1">
          <rasterTransparency/>
          <minMaxOrigin>
            <limits>MinMax</limits>
            <extent>WholeRaster</extent>
            <statAccuracy>Estimated</statAccuracy>
            <cumulativeCutLower>0.02</cumulativeCutLower>
            <cumulativeCutUpper>0.98</cumulativeCutUpper>
            <stdDevFactor>2</stdDevFactor>
          </minMaxOrigin>
          <contrastEnhancement>
            <minValue>0</minValue>
            <maxValue>255</maxValue>
            <algorithm>StretchToMinimumMaximum</algorithm>
          </contrastEnhancement>
        </rasterrenderer>
        <brightnesscontrast contrast="0" brightness="0"/>
        <huesaturation colorizeGreen="128" colorizeStrength="100" saturation="0" colorizeOn="0" colorizeRed="255" colorizeBlue="128" grayscaleMode="0"/>
        <rasterresampler maxOversampling="2"/>
      </pipe>
      <blendMode>0</blendMode>
    </maplayer>
    <maplayer autoRefreshTime="0" refreshOnNotifyMessage="" type="raster" hasScaleBasedVisibilityFlag="0" minScale="1e+8" autoRefreshEnabled="0" maxScale="0" refreshOnNotifyEnabled="0">
      <extent>
        <xmin>5661342.80316535942256451</xmin>
        <ymin>19620009.74438977241516113</ymin>
        <xmax>5669342.80316535942256451</xmax>
        <ymax>19628009.74438977241516113</ymax>
      </extent>
      <id>fig_13_hk_85f3ed07_fc16_4d60_99e5_064b338f3ef6</id>
      <datasource>./gwpath_rasters/fig_13_hk.tif</datasource>
      <keywordList>
        <value></value>
      </keywordList>
      <layername>fig_13_hk</layername>
      <srs>
        <spatialrefsys>
          <proj4>+proj=aea +lat_1=27.5 +lat_2=35 +lat_0=31.25 +lon_0=-100 +x_0=1500000 +y_0=6000000 +ellps=GRS80 +towgs84=0,0,0,0,0,0,0 +units=us-ft +no_defs</proj4>
          <srsid>100001</srsid>
          <srid>0</srid>
          <authid>USER:100001</authid>
          <description> * Generated CRS (+proj=aea +lat_1=27.5 +lat_2=35 +lat_0=31.25 +lon_0=-100 +x_0=1500000 +y_0=6000000 +ellps=GRS80 +towgs84=0,0,0,0,0,0,0 +units=us-ft +no_defs)</description>
          <projectionacronym>aea</projectionacronym>
          <ellipsoidacronym>GRS80</ellipsoidacronym>
          <geographicflag>false</geographicflag>
        </spatialrefsys>
      </srs>
      <resourceMetadata>
        <identifier></identifier>
        <parentidentifier></parentidentifier>
        <language></language>
        <type></type>
        <title></title>
        <abstract></abstract>
        <fees></fees>
        <encoding></encoding>
        <crs>
          <spatialrefsys>
            <proj4></proj4>
            <srsid>0</srsid>
            <srid>0</srid>
            <authid></authid>
            <description></description>
            <projectionacronym></projectionacronym>
            <ellipsoidacronym></ellipsoidacronym>
            <geographicflag>false</geographicflag>
          </spatialrefsys>
        </crs>
        <extent/>
        <links/>
      </resourceMetadata>
      <customproperties>
        <property value="Value" key="identify/format"/>
      </customproperties>
      <provider>gdal</provider>
      <noData>
        <noDataList bandNo="1" useSrcNoData="0"/>
      </noData>
      <map-layer-style-manager current="default">
        <map-layer-style name="default"/>
      </map-layer-style-manager>
      <pipe>
        <rasterrenderer type="singlebandgray" grayBand="1" gradient="BlackToWhite" opacity="1" alphaBand="-1">
          <rasterTransparency/>
          <minMaxOrigin>
            <limits>MinMax</limits>
            <extent>WholeRaster</extent>
            <statAccuracy>Estimated</statAccuracy>
            <cumulativeCutLower>0.02</cumulativeCutLower>
            <cumulativeCutUpper>0.98</cumulativeCutUpper>
            <stdDevFactor>2</stdDevFactor>
          </minMaxOrigin>
          <contrastEnhancement>
            <minValue>0</minValue>
            <maxValue>255</maxValue>
            <algorithm>StretchToMinimumMaximum</algorithm>
          </contrastEnhancement>
        </rasterrenderer>
        <brightnesscontrast contrast="0" brightness="0"/>
        <huesaturation colorizeGreen="128" colorizeStrength="100" saturation="0" colorizeOn="0" colorizeRed="255" colorizeBlue="128" grayscaleMode="0"/>
        <rasterresampler maxOversampling="2"/>
      </pipe>
      <blendMode>0</blendMode>
    </maplayer>
    <maplayer autoRefreshTime="0" refreshOnNotifyMessage="" type="raster" hasScaleBasedVisibilityFlag="0" minScale="1e+8" autoRefreshEnabled="0" maxScale="0" refreshOnNotifyEnabled="0">
      <extent>
        <xmin>5661342.80316535942256451</xmin>
        <ymin>19620009.74438977241516113</ymin>
        <xmax>5669342.80316535942256451</xmax>
        <ymax>19628009.74438977241516113</ymax>
      </extent>
      <id>fig_14_vk_2138b78b_21ca_44c4_8119_8e2d701571f7</id>
      <datasource>./gwpath_rasters/fig_14_vk.tif</datasource>
      <keywordList>
        <value></value>
      </keywordList>
      <layername>fig_14_vk</layername>
      <srs>
        <spatialrefsys>
          <proj4>+proj=aea +lat_1=27.5 +lat_2=35 +lat_0=31.25 +lon_0=-100 +x_0=1500000 +y_0=6000000 +ellps=GRS80 +towgs84=0,0,0,0,0,0,0 +units=us-ft +no_defs</proj4>
          <srsid>100001</srsid>
          <srid>0</srid>
          <authid>USER:100001</authid>
          <description> * Generated CRS (+proj=aea +lat_1=27.5 +lat_2=35 +lat_0=31.25 +lon_0=-100 +x_0=1500000 +y_0=6000000 +ellps=GRS80 +towgs84=0,0,0,0,0,0,0 +units=us-ft +no_defs)</description>
          <projectionacronym>aea</projectionacronym>
          <ellipsoidacronym>GRS80</ellipsoidacronym>
          <geographicflag>false</geographicflag>
        </spatialrefsys>
      </srs>
      <resourceMetadata>
        <identifier></identifier>
        <parentidentifier></parentidentifier>
        <language></language>
        <type></type>
        <title></title>
        <abstract></abstract>
        <fees></fees>
        <encoding></encoding>
        <crs>
          <spatialrefsys>
            <proj4></proj4>
            <srsid>0</srsid>
            <srid>0</srid>
            <authid></authid>
            <description></description>
            <projectionacronym></projectionacronym>
            <ellipsoidacronym></ellipsoidacronym>
            <geographicflag>false</geographicflag>
          </spatialrefsys>
        </crs>
        <extent/>
        <links/>
      </resourceMetadata>
      <customproperties>
        <property value="Value" key="identify/format"/>
      </customproperties>
      <provider>gdal</provider>
      <noData>
        <noDataList bandNo="1" useSrcNoData="0"/>
      </noData>
      <map-layer-style-manager current="default">
        <map-layer-style name="default"/>
      </map-layer-style-manager>
      <pipe>
        <rasterrenderer type="singlebandgray" grayBand="1" gradient="BlackToWhite" opacity="1" alphaBand="-1">
          <rasterTransparency/>
          <minMaxOrigin>
            <limits>MinMax</limits>
            <extent>WholeRaster</extent>
            <statAccuracy>Estimated</statAccuracy>
            <cumulativeCutLower>0.02</cumulativeCutLower>
            <cumulativeCutUpper>0.98</cumulativeCutUpper>
            <stdDevFactor>2</stdDevFactor>
          </minMaxOrigin>
          <contrastEnhancement>
            <minValue>0</minValue>
            <maxValue>255</maxValue>
            <algorithm>StretchToMinimumMaximum</algorithm>
          </contrastEnhancement>
        </rasterrenderer>
        <brightnesscontrast contrast="0" brightness="0"/>
        <huesaturation colorizeGreen="128" colorizeStrength="100" saturation="0" colorizeOn="0" colorizeRed="255" colorizeBlue="128" grayscaleMode="0"/>
        <rasterresampler maxOversampling="2"/>
      </pipe>
      <blendMode>0</blendMode>
    </maplayer>
    <maplayer autoRefreshTime="0" refreshOnNotifyMessage="" type="raster" hasScaleBasedVisibilityFlag="0" minScale="1e+8" autoRefreshEnabled="0" maxScale="0" refreshOnNotifyEnabled="0">
      <extent>
        <xmin>5661342.80316535942256451</xmin>
        <ymin>19620009.74438977241516113</ymin>
        <xmax>5669342.80316535942256451</xmax>
        <ymax>19628009.74438977241516113</ymax>
      </extent>
      <id>fig_15_prosity_ecdf5ad8_15fe_42f0_adfb_8fb1c6988b08</id>
      <datasource>./gwpath_rasters/fig_15_prosity.tif</datasource>
      <keywordList>
        <value></value>
      </keywordList>
      <layername>fig_15_prosity</layername>
      <srs>
        <spatialrefsys>
          <proj4>+proj=aea +lat_1=27.5 +lat_2=35 +lat_0=31.25 +lon_0=-100 +x_0=1500000 +y_0=6000000 +ellps=GRS80 +towgs84=0,0,0,0,0,0,0 +units=us-ft +no_defs</proj4>
          <srsid>100001</srsid>
          <srid>0</srid>
          <authid>USER:100001</authid>
          <description> * Generated CRS (+proj=aea +lat_1=27.5 +lat_2=35 +lat_0=31.25 +lon_0=-100 +x_0=1500000 +y_0=6000000 +ellps=GRS80 +towgs84=0,0,0,0,0,0,0 +units=us-ft +no_defs)</description>
          <projectionacronym>aea</projectionacronym>
          <ellipsoidacronym>GRS80</ellipsoidacronym>
          <geographicflag>false</geographicflag>
        </spatialrefsys>
      </srs>
      <resourceMetadata>
        <identifier></identifier>
        <parentidentifier></parentidentifier>
        <language></language>
        <type></type>
        <title></title>
        <abstract></abstract>
        <fees></fees>
        <encoding></encoding>
        <crs>
          <spatialrefsys>
            <proj4></proj4>
            <srsid>0</srsid>
            <srid>0</srid>
            <authid></authid>
            <description></description>
            <projectionacronym></projectionacronym>
            <ellipsoidacronym></ellipsoidacronym>
            <geographicflag>false</geographicflag>
          </spatialrefsys>
        </crs>
        <extent/>
        <links/>
      </resourceMetadata>
      <customproperties>
        <property value="Value" key="identify/format"/>
      </customproperties>
      <provider>gdal</provider>
      <noData>
        <noDataList bandNo="1" useSrcNoData="0"/>
      </noData>
      <map-layer-style-manager current="default">
        <map-layer-style name="default"/>
      </map-layer-style-manager>
      <pipe>
        <rasterrenderer type="singlebandgray" grayBand="1" gradient="BlackToWhite" opacity="1" alphaBand="-1">
          <rasterTransparency/>
          <minMaxOrigin>
            <limits>MinMax</limits>