# WEL package for  MODFLOW-2000, generated by Flopy.
         4        53
         4         0 # stress period 1
         1        10        15    -38500
         1        18        40    -77000
         1        29        24    -96250
         1        42        18    -57750
         4         0 # stress period 2
         1        10        15    -38500
         1        18        40    -77000
         1        29        24    -96250
         1        42        18    -57750
         4         0 # stress period 3
         1        10        15    -38500
         1        18        40    -77000
         1        29        24    -96250
         1        42        18    -57750
         4         0 # stress period 4
         1        10        15    -38500
         1        18        40    -77000
         1        29        24    -96250
         1        42        18    -57750
         4         0 # stress period 5
         1        10        15    -38500
         1        18        40    -77000
         1        29        24    -96250
         1        42        18    -57750
         4         0 # stress period 6
         1        10        15    -38500
         1        18        40    -77000
         1        29        24    -96250
         1        42        18    -57750
         4         0 # stress period 7
         1        10        15    -38500
         1        18        40    -77000
         1        29        24    -96250
         1        42        18    -57750
         4         0 # stress period 8
         1        10        15    -38500
         1        18        40    -77000
         1        29        24    -96250
         1        42        18    -57750
         4         0 # stress period 9
         1        10        15    -38500
         1        18        40    -77000
         1        29        24    -96250
         1        42        18    -57750
         4         0 # stress period 10
         1        10        15    -38500
         1        18        40    -77000
         1        29        24    -96250
         1        42        18    -57750
