# DIS package for  MODFLOW-2000, generated by Flopy.
         1       100       100        10         4         1
  0
CONSTANT    8.000000E+01                           #delr                          
CONSTANT    8.000000E+01                           #delc                          
CONSTANT    1.500000E+02                           #model_top                     
CONSTANT    0.000000E+00                           #botm layer 1                  
    365.200012             1  1.000000  SS 
    365.200012             1  1.000000  SS 
    365.200012             1  1.000000  SS 
    365.200012             1  1.000000  SS 
    365.200012             1  1.000000  SS 
    365.200012             1  1.000000  SS 
    365.200012             1  1.000000  SS 
    365.200012             1  1.000000  SS 
    365.200012             1  1.000000  SS 
    365.200012             1  1.000000  SS 
