# WEL package for  MODFLOW-2000, generated by Flopy.
         4        53
         4         0 # stress period 1
         1        10        15  -3.8500000E+04
         1        18        40  -7.7000000E+04
         1        29        24  -9.6250000E+04
         1        42        18  -5.7750000E+04
         4         0 # stress period 2
         1        10        15  -3.8500000E+04
         1        18        40  -7.7000000E+04
         1        29        24  -9.6250000E+04
         1        42        18  -5.7750000E+04
         4         0 # stress period 3
         1        10        15  -3.8500000E+04
         1        18        40  -7.7000000E+04
         1        29        24  -9.6250000E+04
         1        42        18  -5.7750000E+04
         4         0 # stress period 4
         1        10        15  -3.8500000E+04
         1        18        40  -7.7000000E+04
         1        29        24  -9.6250000E+04
         1        42        18  -5.7750000E+04
         4         0 # stress period 5
         1        10        15  -3.8500000E+04
         1        18        40  -7.7000000E+04
         1        29        24  -9.6250000E+04
         1        42        18  -5.7750000E+04
         4         0 # stress period 6
         1        10        15  -3.8500000E+04
         1        18        40  -7.7000000E+04
         1        29        24  -9.6250000E+04
         1        42        18  -5.7750000E+04
         4         0 # stress period 7
         1        10        15  -3.8500000E+04
         1        18        40  -7.7000000E+04
         1        29        24  -9.6250000E+04
         1        42        18  -5.7750000E+04
         4         0 # stress period 8
         1        10        15  -3.8500000E+04
         1        18        40  -7.7000000E+04
         1        29        24  -9.6250000E+04
         1        42        18  -5.7750000E+04
         4         0 # stress period 9
         1        10        15  -3.8500000E+04
         1        18        40  -7.7000000E+04
         1        29        24  -9.6250000E+04
         1        42        18  -5.7750000E+04
         4         0 # stress period 10
         1        10        15  -3.8500000E+04
         1        18        40  -7.7000000E+04
         1        29        24  -9.6250000E+04
         1        42        18  -5.7750000E+04
