# WEL package for  MODFLOW-2000, generated by Flopy.
         4        53
         4         0 # stress period 1
         1        40        60    -38500
         1        72       160    -77000
         1       116        96    -96250
         1       168        72    -57750
         4         0 # stress period 2
         1        40        60    -38500
         1        72       160    -77000
         1       116        96    -96250
         1       168        72    -57750
         4         0 # stress period 3
         1        40        60    -38500
         1        72       160    -77000
         1       116        96    -96250
         1       168        72    -57750
         4         0 # stress period 4
         1        40        60    -38500
         1        72       160    -77000
         1       116        96    -96250
         1       168        72    -57750
         4         0 # stress period 5
         4         0 # stress period 6
         4         0 # stress period 7
         1        40        60    -38500
         1        72       160    -77000
         1       116        96    -96250
         1       168        72    -57750
         4         0 # stress period 8
         1        40        60    -38500
         1        72       160    -77000
         1       116        96    -96250
         1       168        72    -57750
         4         0 # stress period 9
         1        40        60    -38500
         1        72       160    -77000
         1       116        96    -96250
         1       168        72    -57750
         4         0 # stress period 10
         1        40        60    -38500
         1        72       160    -77000
         1       116        96    -96250
         1       168        72    -57750
