# Name file for MODPATH, generated by Flopy version 3.2.9.
MPBAS  86 test_3.mpbas
DIS  11 test_3.dis
HEAD  88 test_3.hds
BUDGET  89 test_3.cbc
