# BAS6 package for  MODFLOW-2000, generated by Flopy.
 FREE
INTERNAL               1    (50I10) -1 #ibound layer 1                
        -1        -1        -1        -1        -1        -1        -1        -1        -1        -1        -1        -1        -1        -1        -1        -1        -1        -1        -1        -1        -1        -1        -1        -1        -1        -1        -1        -1        -1        -1        -1        -1        -1        -1        -1        -1        -1        -1        -1        -1        -1        -1        -1        -1        -1        -1        -1        -1        -1        -1
        -1         1         1         1         1         1         1         1         1         1         1         1         1         1         1         1         1         1         1         1         1         1         1         1         1         1         1         1         1         1         1         1         1         1         1         1         1         1         1         1         1         1         1         1         1         1         1         1         1        -1
        -1         1         1         1         1         1         1         1         1         1         1         1         1         1         1         1         1         1         1         1         1         1         1         1         1         1         1         1         1         1         1         1         1         1         1         1         1         1         1         1         1         1         1         1         1         1         1         1         1        -1
        -1         1         1         1         1         1         1         1         1         1         1         1         1         1         1         1         1         1         1         1         1         1         1         1         1         1         1         1         1         1         1         1         1         1         1         1         1         1         1         1         1         1         1         1         1         1         1         1         1        -1
        -1         1         1         1         1         1         1         1         1         1         1         1         1         1         1         1         1         1         1         1         1         1         1         1         1         1         1         1         1         1         1         1         1         1         1         1         1         1         1         1         1         1         1         1         1         1         1         1         1        -1
        -1         1         1         1         1         1         1         1         1         1         1         1         1         1         1         1         1         1         1         1         1         1         1         1         1         1         1         1         1         1         1         1         1         1         1         1         1         1         1         1         1         1         1         1         1         1         1         1         1        -1
        -1         1         1         1         1         1         1         1         1         1         1         1         1         1         1         1         1         1         1         1         1         1         1         1         1         1         1         1         1         1         1         1         1         1         1         1         1         1         1         1         1         1         1         1         1         1         1         1         1        -1
        -1         1         1         1         1         1         1         1         1         1         1         1         1         1         1         1         1         1         1         1         1         1         1         1         1         1         1         1         1         1         1         1         1         1         1         1         1         1         1         1         1         1         1         1         1         1         1         1         1        -1
        -1         1         1         1         1         1         1         1         1         1         1         1         1         1         1         1         1         1         1         1         1         1         1         1         1         1         1         1         1         1         1         1         1         1         1         1         1         1         1         1         1         1         1         1         1         1         1         1         1        -1
        -1         1         1         1         1         1         1         1         1         1         1         1         1         1         1         1         1         1         1         1         1         1         1         1         1         1         1         1         1         1         1         1         1         1         1         1         1         1         1         1         1         1         1         1         1         1         1         1         1        -1
        -1         1         1         1         1         1         1         1         1         1         1         1         1         1         1         1         1         1         1         1         1         1         1         1         1         1         1         1         1         1         1         1         1         1         1         1         1         1         1         1         1         1         1         1         1         1         1         1         1        -1
        -1         1         1         1         1         1         1         1         1         1         1         1         1         1         1         1         1         1         1         1         1         1         1         1         1         1         1         1         1         1         1         1         1         1         1         1         1         1         1         1         1         1         1         1         1         1         1         1         1        -1
        -1         1         1         1         1         1         1         1         1         1         1         1         1         1         1         1         1         1         1         1         1         1         1         1         1         1         1         1         1         1         1         1         1         1         1         1         1         1         1         1         1         1         1         1         1         1         1         1         1        -1
        -1         1         1         1         1         1         1         1         1         1         1         1         1         1         1         1         1         1         1         1         1         1         1         1         1         1         1         1         1         1         1         1         1         1         1         1         1         1         1         1         1         1         1         1         1         1         1         1         1        -1
        -1         1         1         1         1         1         1         1         1         1         1         1         1         1         1         1         1         1         1         1         1         1         1         1         1         1         1         1         1         1         1         1         1         1         1         1         1         1         1         1         1         1         1         1         1         1         1         1         1        -1
        -1         1         1         1         1         1         1         1         1         1         1         1         1         1         1         1         1         1         1         1         1         1         1         1         1         1         1         1         1         1         1         1         1         1         1         1         1         1         1         1         1         1         1         1         1         1         1         1         1        -1
        -1         1         1         1         1         1         1         1         1         1         1         1         1         1         1         1         1         1         1         1         1         1         1         1         1         1         1         1         1         1         1         1         1         1         1         1         1         1         1         1         1         1         1         1         1         1         1         1         1        -1
        -1         1         1         1         1         1         1         1         1         1         1         1         1         1         1         1         1         1         1         1         1         1         1         1         1         1         1         1         1         1         1         1         1         1         1         1         1         1         1         1         1         1         1         1         1         1         1         1         1        -1
        -1         1         1         1         1         1         1         1         1         1         1         1         1         1         1         1         1         1         1         1         1         1         1         1         1         1         1         1         1         1         1         1         1         1         1         1         1         1         1         1         1         1         1         1         1         1         1         1         1        -1
        -1         1         1         1         1         1         1         1         1         1         1         1         1         1         1         1         1         1         1         1         1         1         1         1         1         1         1         1         1         1         1         1         1         1         1         1         1         1         1         1         1         1         1         1         1         1         1         1         1        -1
        -1         1         1         1         1         1         1         1         1         1         1         1         1         1         1         1         1         1         1         1         1         1         1         1         1         1         1         1         1         1         1         1         1         1         1         1         1         1         1         1         1         1         1         1         1         1         1         1         1        -1
        -1         1         1         1         1         1         1         1         1         1         1         1         1         1         1         1         1         1         1         1         1         1         1         1         1         1         1         1         1         1         1         1         1         1         1         1         1         1         1         1         1         1         1         1         1         1         1         1         1        -1
        -1         1         1         1         1         1         1         1         1         1         1         1         1         1         1         1         1         1         1         1         1         1         1         1         1         1         1         1         1         1         1         1         1         1         1         1         1         1         1         1         1         1         1         1         1         1         1         1         1        -1
        -1         1         1         1         1         1         1         1         1         1         1         1         1         1         1         1         1         1         1         1         1         1         1         1         1         1         1         1         1         1         1         1         1         1         1         1         1         1         1         1         1         1         1         1         1         1         1         1         1        -1
        -1         1         1         1         1         1         1         1         1         1         1         1         1         1         1         1         1         1         1         1         1         1         1         1         1         1         1         1         1         1         1         1         1         1         1         1         1         1         1         1         1         1         1         1         1         1         1         1         1        -1
        -1         1         1         1         1         1         1         1         1         1         1         1         1         1         1         1         1         1         1         1         1         1         1         1         1         1         1         1         1         1         1         1         1         1         1         1         1         1         1         1         1         1         1         1         1         1         1         1         1        -1
        -1         1         1         1         1         1         1         1         1         1         1         1         1         1         1         1         1         1         1         1         1         1         1         1         1         1         1         1         1         1         1         1         1         1         1         1         1         1         1         1         1         1         1         1         1         1         1         1         1        -1
        -1         1         1         1         1         1         1         1         1         1         1         1         1         1         1         1         1         1         1         1         1         1         1         1         1         1         1         1         1         1         1         1         1         1         1         1         1         1         1         1         1         1         1         1         1         1         1         1         1        -1
        -1         1         1         1         1         1         1         1         1         1         1         1         1         1         1         1         1         1         1         1         1         1         1         1         1         1         1         1         1         1         1         1         1         1         1         1         1         1         1         1         1         1         1         1         1         1         1         1         1        -1
        -1         1         1         1         1         1         1         1         1         1         1         1         1         1         1         1         1         1         1         1         1         1         1         1         1         1         1         1         1         1         1         1         1         1         1         1         1         1         1         1         1         1         1         1         1         1         1         1         1        -1
        -1         1         1         1         1         1         1         1         1         1         1         1         1         1         1         1         1         1         1         1         1         1         1         1         1         1         1         1         1         1         1         1         1         1         1         1         1         1         1         1         1         1         1         1         1         1         1         1         1        -1
        -1         1         1         1         1         1         1         1         1         1         1         1         1         1         1         1         1         1         1         1         1         1         1         1         1         1         1         1         1         1         1         1         1         1         1         1         1         1         1         1         1         1         1         1         1         1         1         1         1        -1
        -1         1         1         1         1         1         1         1         1         1         1         1         1         1         1         1         1         1         1         1         1         1         1         1         1         1         1         1         1         1         1         1         1         1         1         1         1         1         1         1         1         1         1         1         1         1         1         1         1        -1
        -1         1         1         1         1         1         1         1         1         1         1         1         1         1         1         1         1         1         1         1         1         1         1         1         1         1         1         1         1         1         1         1         1         1         1         1         1         1         1         1         1         1         1         1         1         1         1         1         1        -1
        -1         1         1         1         1         1         1         1         1         1         1         1         1         1         1         1         1         1         1         1         1         1         1         1         1         1         1         1         1         1         1         1         1         1         1         1         1         1         1         1         1         1         1         1         1         1         1         1         1        -1
        -1         1         1         1         1         1         1         1         1         1         1         1         1         1         1         1         1         1         1         1         1         1         1         1         1         1         1         1         1         1         1         1         1         1         1         1         1         1         1         1         1         1         1         1         1         1         1         1         1        -1
        -1         1         1         1         1         1         1         1         1         1         1         1         1         1         1         1         1         1         1         1         1         1         1         1         1         1         1         1         1         1         1         1         1         1         1         1         1         1         1         1         1         1         1         1         1         1         1         1         1        -1
        -1         1         1         1         1         1         1         1         1         1         1         1         1         1         1         1         1         1         1         1         1         1         1         1         1         1         1         1         1         1         1         1         1         1         1         1         1         1         1         1         1         1         1         1         1         1         1         1         1        -1
        -1         1         1         1         1         1         1         1         1         1         1         1         1         1         1         1         1         1         1         1         1         1         1         1         1         1         1         1         1         1         1         1         1         1         1         1         1         1         1         1         1         1         1         1         1         1         1         1         1        -1
        -1         1         1         1         1         1         1         1         1         1         1         1         1         1         1         1         1         1         1         1         1         1         1         1         1         1         1         1         1         1         1         1         1         1         1         1         1         1         1         1         1         1         1         1         1         1         1         1         1        -1
        -1         1         1         1         1         1         1         1         1         1         1         1         1         1         1         1         1         1         1         1         1         1         1         1         1         1         1         1         1         1         1         1         1         1         1         1         1         1         1         1         1         1         1         1         1         1         1         1         1        -1
        -1         1         1         1         1         1         1         1         1         1         1         1         1         1         1         1         1         1         1         1         1         1         1         1         1         1         1         1         1         1         1         1         1         1         1         1         1         1         1         1         1         1         1         1         1         1         1         1         1        -1
        -1         1         1         1         1         1         1         1         1         1         1         1         1         1         1         1         1         1         1         1         1         1         1         1         1         1         1         1         1         1         1         1         1         1         1         1         1         1         1         1         1         1         1         1         1         1         1         1         1        -1
        -1         1         1         1         1         1         1         1         1         1         1         1         1         1         1         1         1         1         1         1         1         1         1         1         1         1         1         1         1         1         1         1         1         1         1         1         1         1         1         1         1         1         1         1         1         1         1         1         1        -1
        -1         1         1         1         1         1         1         1         1         1         1         1         1         1         1         1         1         1         1         1         1         1         1         1         1         1         1         1         1         1         1         1         1         1         1         1         1         1         1         1         1         1         1         1         1         1         1         1         1        -1
        -1         1         1         1         1         1         1         1         1         1         1         1         1         1         1         1         1         1         1         1         1         1         1         1         1         1         1         1         1         1         1         1         1         1         1         1         1         1         1         1         1         1         1         1         1         1         1         1         1        -1
        -1         1         1         1         1         1         1         1         1         1         1         1         1         1         1         1         1         1         1         1         1         1         1         1         1         1         1         1         1         1         1         1         1         1         1         1         1         1         1         1         1         1         1         1         1         1         1         1         1        -1
        -1         1         1         1         1         1         1         1         1         1         1         1         1         1         1         1         1         1         1         1         1         1         1         1         1         1         1         1         1         1         1         1         1         1         1         1         1         1         1         1         1         1         1         1         1         1         1         1         1        -1
        -1         1         1         1         1         1         1         1         1         1         1         1         1         1         1         1         1         1         1         1         1         1         1         1         1         1         1         1         1         1         1         1         1         1         1         1         1         1         1         1         1         1         1         1         1         1         1         1         1        -1
        -1        -1        -1        -1        -1        -1        -1        -1        -1        -1        -1        -1        -1        -1        -1        -1        -1        -1        -1        -1        -1        -1        -1        -1        -1        -1        -1        -1        -1        -1        -1        -1        -1        -1        -1        -1        -1        -1        -1        -1        -1        -1        -1        -1        -1        -1        -1        -1        -1        -1
        -999.99
INTERNAL               1  (50E15.6) -1 #strt layer 1                  
   6.000000E+01   6.000000E+01   6.000000E+01   6.000000E+01   6.000000E+01   6.000000E+01   6.000000E+01   6.000000E+01   6.000000E+01   6.000000E+01   6.000000E+01   6.000000E+01   6.000000E+01   6.000000E+01   6.000000E+01   6.000000E+01   6.000000E+01   6.000000E+01   6.000000E+01   6.000000E+01   6.000000E+01   6.000000E+01   6.000000E+01   6.000000E+01   6.000000E+01   6.000000E+01   6.000000E+01   6.000000E+01   6.000000E+01   6.000000E+01   6.000000E+01   6.000000E+01   6.000000E+01   6.000000E+01   6.000000E+01   6.000000E+01   6.000000E+01   6.000000E+01   6.000000E+01   6.000000E+01   6.000000E+01   6.000000E+01   6.000000E+01   6.000000E+01   6.000000E+01   6.000000E+01   6.000000E+01   6.000000E+01   6.000000E+01   6.000000E+01
   6.081633E+01   6.081633E+01   6.081633E+01   6.081633E+01   6.081633E+01   6.081633E+01   6.081633E+01   6.081633E+01   6.081633E+01   6.081633E+01   6.081633E+01   6.081633E+01   6.081633E+01   6.081633E+01   6.081633E+01   6.081633E+01   6.081633E+01   6.081633E+01   6.081633E+01   6.081633E+01   6.081633E+01   6.081633E+01   6.081633E+01   6.081633E+01   6.081633E+01   6.081633E+01   6.081633E+01   6.081633E+01   6.081633E+01   6.081633E+01   6.081633E+01   6.081633E+01   6.081633E+01   6.081633E+01   6.081633E+01   6.081633E+01   6.081633E+01   6.081633E+01   6.081633E+01   6.081633E+01   6.081633E+01   6.081633E+01   6.081633E+01   6.081633E+01   6.081633E+01   6.081633E+01   6.081633E+01   6.081633E+01   6.081633E+01   6.081633E+01
   6.163265E+01   6.163265E+01   6.163265E+01   6.163265E+01   6.163265E+01   6.163265E+01   6.163265E+01   6.163265E+01   6.163265E+01   6.163265E+01   6.163265E+01   6.163265E+01   6.163265E+01   6.163265E+01   6.163265E+01   6.163265E+01   6.163265E+01   6.163265E+01   6.163265E+01   6.163265E+01   6.163265E+01   6.163265E+01   6.163265E+01   6.163265E+01   6.163265E+01   6.163265E+01   6.163265E+01   6.163265E+01   6.163265E+01   6.163265E+01   6.163265E+01   6.163265E+01   6.163265E+01   6.163265E+01   6.163265E+01   6.163265E+01   6.163265E+01   6.163265E+01   6.163265E+01   6.163265E+01   6.163265E+01   6.163265E+01   6.163265E+01   6.163265E+01   6.163265E+01   6.163265E+01   6.163265E+01   6.163265E+01   6.163265E+01   6.163265E+01
   6.244898E+01   6.244898E+01   6.244898E+01   6.244898E+01   6.244898E+01   6.244898E+01   6.244898E+01   6.244898E+01   6.244898E+01   6.244898E+01   6.244898E+01   6.244898E+01   6.244898E+01   6.244898E+01   6.244898E+01   6.244898E+01   6.244898E+01   6.244898E+01   6.244898E+01   6.244898E+01   6.244898E+01   6.244898E+01   6.244898E+01   6.244898E+01   6.244898E+01   6.244898E+01   6.244898E+01   6.244898E+01   6.244898E+01   6.244898E+01   6.244898E+01   6.244898E+01   6.244898E+01   6.244898E+01   6.244898E+01   6.244898E+01   6.244898E+01   6.244898E+01   6.244898E+01   6.244898E+01   6.244898E+01   6.244898E+01   6.244898E+01   6.244898E+01   6.244898E+01   6.244898E+01   6.244898E+01   6.244898E+01   6.244898E+01   6.244898E+01
   6.326530E+01   6.326530E+01   6.326530E+01   6.326530E+01   6.326530E+01   6.326530E+01   6.326530E+01   6.326530E+01   6.326530E+01   6.326530E+01   6.326530E+01   6.326530E+01   6.326530E+01   6.326530E+01   6.326530E+01   6.326530E+01   6.326530E+01   6.326530E+01   6.326530E+01   6.326530E+01   6.326530E+01   6.326530E+01   6.326530E+01   6.326530E+01   6.326530E+01   6.326530E+01   6.326530E+01   6.326530E+01   6.326530E+01   6.326530E+01   6.326530E+01   6.326530E+01   6.326530E+01   6.326530E+01   6.326530E+01   6.326530E+01   6.326530E+01   6.326530E+01   6.326530E+01   6.326530E+01   6.326530E+01   6.326530E+01   6.326530E+01   6.326530E+01   6.326530E+01   6.326530E+01   6.326530E+01   6.326530E+01   6.326530E+01   6.326530E+01
   6.408163E+01   6.408163E+01   6.408163E+01   6.408163E+01   6.408163E+01   6.408163E+01   6.408163E+01   6.408163E+01   6.408163E+01   6.408163E+01   6.408163E+01   6.408163E+01   6.408163E+01   6.408163E+01   6.408163E+01   6.408163E+01   6.408163E+01   6.408163E+01   6.408163E+01   6.408163E+01   6.408163E+01   6.408163E+01   6.408163E+01   6.408163E+01   6.408163E+01   6.408163E+01   6.408163E+01   6.408163E+01   6.408163E+01   6.408163E+01   6.408163E+01   6.408163E+01   6.408163E+01   6.408163E+01   6.408163E+01   6.408163E+01   6.408163E+01   6.408163E+01   6.408163E+01   6.408163E+01   6.408163E+01   6.408163E+01   6.408163E+01   6.408163E+01   6.408163E+01   6.408163E+01   6.408163E+01   6.408163E+01   6.408163E+01   6.408163E+01