# WEL package for  MODFLOW-2000, generated by Flopy.
         4        53
         4         0 # stress period 1
         1        19        29    -38500
         1        35        79    -77000
         1        57        47    -96250
         1        83        35    -57750
         4         0 # stress period 2
         1        19        29    -38500
         1        35        79    -77000
         1        57        47    -96250
         1        83        35    -57750
         4         0 # stress period 3
         1        19        29    -38500
         1        35        79    -77000
         1        57        47    -96250
         1        83        35    -57750
         4         0 # stress period 4
         1        19        29    -38500
         1        35        79    -77000
         1        57        47    -96250
         1        83        35    -57750
         4         0 # stress period 5
         4         0 # stress period 6
         4         0 # stress period 7
         1        19        29    -38500
         1        35        79    -77000
         1        57        47    -96250
         1        83        35    -57750
         4         0 # stress period 8
         1        19        29    -38500
         1        35        79    -77000
         1        57        47    -96250
         1        83        35    -57750
         4         0 # stress period 9
         1        19        29    -38500
         1        35        79    -77000
         1        57        47    -96250
         1        83        35    -57750
         4         0 # stress period 10
         1        19        29    -38500
         1        35        79    -77000
         1        57        47    -96250
         1        83        35    -57750
