# SIP package for  MODFLOW-2000, generated by Flopy.
200 5
1 1e-05 1 0 0
