# GHB package for  MODFLOW-2000, generated by Flopy.
       400        53
       400         0 # stress period 1
         1         1         1       100       500
         1         1       200       100       500
         1         2         1    99.799       500
         1         2       200    99.799       500
         1         3         1    99.598       500
         1         3       200    99.598       500
         1         4         1    99.397       500
         1         4       200    99.397       500
         1         5         1    99.196       500
         1         5       200    99.196       500
         1         6         1    98.995       500
         1         6       200    98.995       500
         1         7         1    98.794       500
         1         7       200    98.794       500
         1         8         1    98.593       500
         1         8       200    98.593       500
         1         9         1    98.392       500
         1         9       200    98.392       500
         1        10         1    98.191       500
         1        10       200    98.191       500
         1        11         1     97.99       500
         1        11       200     97.99       500
         1        12         1   97.7889       500
         1        12       200   97.7889       500
         1        13         1   97.5879       500
         1        13       200   97.5879       500
         1        14         1   97.3869       500
         1        14       200   97.3869       500
         1        15         1   97.1859       500
         1        15       200   97.1859       500
         1        16         1   96.9849       500
         1        16       200   96.9849       500
         1        17         1   96.7839       500
         1        17       200   96.7839       500
         1        18         1   96.5829       500
         1        18       200   96.5829       500
         1        19         1   96.3819       500
         1        19       200   96.3819       500
         1        20         1   96.1809       500
         1        20       200   96.1809       500
         1        21         1   95.9799       500
         1        21       200   95.9799       500
         1        22         1   95.7789       500
         1        22       200   95.7789       500
         1        23         1   95.5779       500
         1        23       200   95.5779       500
         1        24         1   95.3769       500
         1        24       200   95.3769       500
         1        25         1   95.1759       500
         1        25       200   95.1759       500
         1        26         1   94.9749       500
         1        26       200   94.9749       500
         1        27         1   94.7739       500
         1        27       200   94.7739       500
         1        28         1   94.5729       500
         1        28       200   94.5729       500
         1        29         1   94.3719       500
         1        29       200   94.3719       500
         1        30         1   94.1709       500
         1        30       200   94.1709       500
         1        31         1   93.9698       500
         1        31       200   93.9698       500
         1        32         1   93.7688       500
         1        32       200   93.7688       500
         1        33         1   93.5678       500
         1        33       200   93.5678       500
         1        34         1   93.3668       500
         1        34       200   93.3668       500
         1        35         1   93.1658       500
         1        35       200   93.1658       500
         1        36         1   92.9648       500
         1        36       200   92.9648       500
         1        37         1   92.7638       500
         1        37       200   92.7638       500
         1        38         1   92.5628       500
         1        38       200   92.5628       500
         1        39         1   92.3618       500
         1        39       200   92.3618       500
         1        40         1   92.1608       500
         1        40       200   92.1608       500
         1        41         1   91.9598       500
         1        41       200   91.9598       500
         1        42         1   91.7588       500
         1        42       200   91.7588       500
         1        43         1   91.5578       500
         1        43       200   91.5578       500
         1        44         1   91.3568       500
         1        44       200   91.3568       500
         1        45         1   91.1558       500
         1        45       200   91.1558       500
         1        46         1   90.9548       500
         1        46       200   90.9548       500
         1        47         1   90.7538       500
         1        47       200   90.7538       500
         1        48         1   90.5528       500
         1        48       200   90.5528       500
         1        49         1   90.3518       500
         1        49       200   90.3518       500
         1        50         1   90.1508       500
         1        50       200   90.1508       500
         1        51         1   89.9497       500
         1        51       200   89.9497       500
         1        52         1   89.7487       500
         1        52       200   89.7487       500
         1        53         1   89.5477       500
         1        53       200   89.5477       500
         1        54         1   89.3467       500
         1        54       200   89.3467       500
         1        55         1   89.1457       500
         1        55       200   89.1457       500
         1        56         1   88.9447       500
         1        56       200   88.9447       500
         1        57         1   88.7437       500
         1        57       200   88.7437       500
         1        58         1   88.5427       500
         1        58       200   88.5427       500
         1        59         1   88.3417       500
         1        59       200   88.3417       500
         1        60         1   88.1407       500
         1        60       200   88.1407       500
         1        61         1   87.9397       500
         1        61       200   87.9397       500
         1        62         1   87.7387       500
         1        62       200   87.7387       500
         1        63         1   87.5377       500
         1        63       200   87.5377       500
         1        64         1   87.3367       500
         1        64       200   87.3367       500
         1        65         1   87.1357       500
         1        65       200   87.1357       500
         1        66         1   86.9347       500
         1        66       200   86.9347       500
         1        67         1   86.7337       500
         1        67       200   86.7337       500
         1        68         1   86.5327       500
         1        68       200   86.5327       500
         1        69         1   86.3317       500
         1        69       200   86.3317       500
         1        70         1   86.1307       500
         1        70       200   86.1307       500
         1        71         1   85.9296       500
         1        71       200   85.9296       500
         1        72         1   85.7286       500
         1        72       200   85.7286       500
         1        73         1   85.5276       500
         1        73       200   85.5276       500
         1        74         1   85.3266       500
         1        74       200   85.3266       500
         1        75         1   85.1256       500
         1        75       200   85.1256       500
         1        76         1   84.9246       500
         1        76       200   84.9246       500
         1        77         1   84.7236       500
         1        77       200   84.7236       500
         1        78         1   84.5226       500
         1        78       200   84.5226       500
         1        79         1   84.3216       500
         1        79       200   84.3216       500
         1        80         1   84.1206       500
         1        80       200   84.1206       500
         1        81         1   83.9196       500
         1        81       200   83.9196       500
         1        82         1   83.7186       500
         1        82       200   83.7186       500
         1        83         1   83.5176       500
         1        83       200   83.5176       500
         1        84         1   83.3166       500
         1        84       200   83.3166       500
         1        85         1   83.1156       500
         1        85       200   83.1156       500
         1        86         1   82.9146       500
         1        86       200   82.9146       500
         1        87         1   82.7136       500
         1        87       200   82.7136       500
         1        88         1   82.5126       500
         1        88       200   82.5126       500
         1        89         1   82.3116       500
         1        89       200   82.3116       500
         1        90         1   82.1105       500
         1        90       200   82.1105       500
         1        91         1   81.9095       500
         1        91       200   81.9095       500
         1        92         1   81.7085       500
         1        92       200   81.7085       500
         1        93         1   81.5075       500
         1        93       200   81.5075       500
         1        94         1   81.3065       500
         1        94       200   81.3065       500
         1        95         1   81.1055       500
         1        95       200   81.1055       500
         1        96         1   80.9045       500
         1        96       200   80.9045       500
         1        97         1   80.7035       500
         1        97       200   80.7035       500
         1        98         1   80.5025       500
         1        98       200   80.5025       500
         1        99         1   80.3015       500
         1        99       200   80.3015       500
         1       100         1   80.1005       500
         1       100       200   80.1005       500
         1       101         1   79.8995       500
         1       101       200   79.8995       500
         1       102         1   79.6985       500
         1       102       200   79.6985       500
         1       103         1   79.4975       500
         1       103       200   79.4975       500
         1       104         1   79.2965       500
         1       104       200   79.2965       500
         1       105         1   79.0955       500
         1       105       200   79.0955       500
         1       106         1   78.8945       500
         1       106       200   78.8945       500
         1       107         1   78.6935       500
         1       107       200   78.6935       500
         1       108         1   78.4925       500
         1       108       200   78.4925       500
         1       109         1   78.2915       500
         1       109       200   78.2915       500
         1       110         1   78.0905       500
         1       110       200   78.0905       500
         1       111         1   77.8895       500
         1       111       200   77.8895       500
         1       112         1   77.6884       500
         1       112       200   77.6884       500
         1       113         1   77.4874       500
         1       113       200   77.4874       500
         1       114         1   77.2864       500
         1       114       200   77.2864       500
         1       115         1   77.0854       500
         1       115       200   77.0854       500
         1       116         1   76.8844       500
         1       116       200   76.8844       500
         1       117         1   76.6834       500
         1       117       200   76.6834       500
         1       118         1   76.4824       500
         1       118       200   76.4824       500
         1       119         1   76.2814       500
         1       119       200   76.2814       500
         1       120         1   76.0804       500
         1       120       200   76.0804       500
         1       121         1   75.8794       500
         1       121       200   75.8794       500
         1       122         1   75.6784       500
         1       122       200   75.6784       500
         1       123         1   75.4774       500
         1       123       200   75.4774       500
         1       124         1   75.2764       500
         1       124       200   75.2764       500
         1       125         1   75.0754       500
         1       125       200   75.0754       500
         1       126         1   74.8744       500
         1       126       200   74.8744       500
         1       127         1   74.6734       500
         1       127       200   74.6734       500
         1       128         1   74.4724       500
         1       128       200   74.4724       500
         1       129         1   74.2714       500
         1       129       200   74.2714       500
         1       130         1   74.0704       500
         1       130       200   74.0704       500
         1       131         1   73.8693       500
         1       131       200   73.8693       500
         1       132         1   73.6683       500
         1       132       200   73.6683       500
         1       133         1   73.4673       500
         1       133       200   73.4673       500
         1       134         1   73.2663       500
         1       134       200   73.2663       500
         1       135         1   73.0653       500
         1       135       200   73.0653       500
         1       136         1   72.8643       500
         1       136       200   72.8643       500
         1       137         1   72.6633       500
         1       137       200   72.6633       500
         1       138         1   72.4623       500
         1       138       200   72.4623       500
         1       139         1   72.2613       500
         1       139       200   72.2613       500
         1       140         1   72.0603       500
         1       140       200   72.0603       500
         1       141         1   71.8593       500
         1       141       200   71.8593       500
         1       142         1   71.6583       500
         1       142       200   71.6583       500
         1       143         1   71.4573       500
         1       143       200   71.4573       500
         1       144         1   71.2563       500
         1       144       200   71.2563       500
         1       145         1   71.0553       500
         1       145       200   71.0553       500
         1       146         1   70.8543       500
         1       146       200   70.8543       500
         1       147         1   70.6533       500
         1       147       200   70.6533       500
         1       148         1   70.4523       500
         1       148       200   70.4523       500
         1       149         1   70.2513       500
         1       149       200   70.2513       500
         1       150         1   70.0503       500
         1       150       200   70.0503       500
         1       151         1   69.8492       500
         1       151       200   69.8492       500
         1       152         1   69.6482       500
         1       152       200   69.6482       500
         1       153         1   69.4472       500
         1       153       200   69.4472       500
         1       154         1   69.2462       500
         1       154       200   69.2462       500
         1       155         1   69.0452       500
         1       155       200   69.0452       500
         1       156         1   68.8442       500
         1       156       200   68.8442       500
         1       157         1   68.6432       500
         1       157       200   68.6432       500
         1       158         1   68.4422       500
         1       158       200   68.4422       500
         1       159         1   68.2412       500
         1       159       200   68.2412       500
         1       160         1   68.0402       500
         1       160       200   68.0402       500
         1       161         1   67.8392       500
         1       161       200   67.8392       500
         1       162         1   67.6382       500
         1       162       200   67.6382       500
         1       163         1   67.4372       500
         1       163       200   67.4372       500
         1       164         1   67.2362       500
         1       164       200   67.2362       500
         1       165         1   67.0352       500
         1       165       200   67.0352       500
         1       166         1   66.8342       500
         1       166       200   66.8342       500
         1       167         1   66.6332       500
         1       167       200   66.6332       500
         1       168         1   66.4322       500
         1       168       200   66.4322       500
         1       169         1   66.2312       500
         1       169       200   66.2312       500
         1       170         1   66.0302       500
         1       170       200   66.0302       500
         1       171         1   65.8291       500
         1       171       200   65.8291       500
         1       172         1   65.6281       500
         1       172       200   65.6281       500
         1       173         1   65.4271       500
         1       173       200   65.4271       500
         1       174         1   65.2261       500
         1       174       200   65.2261       500
         1       175         1   65.0251       500
         1       175       200   65.0251       500
         1       176         1   64.8241       500
         1       176       200   64.8241       500
         1       177         1   64.6231       500
         1       177       200   64.6231       500
         1       178         1   64.4221       500
         1       178       200   64.4221       500
         1       179         1   64.2211       500
         1       179       200   64.2211       500
         1       180         1   64.0201       500
         1       180       200   64.0201       500
         1       181         1   63.8191       500
         1       181       200   63.8191       500
         1       182         1   63.6181       500
         1       182       200   63.6181       500
         1       183         1   63.4171       500
         1       183       200   63.4171       500
         1       184         1   63.2161       500
         1       184       200   63.2161       500
         1       185         1   63.0151       500
         1       185       200   63.0151       500
         1       186         1   62.8141       500
         1       186       200   62.8141       500
         1       187         1   62.6131       500
         1       187       200   62.6131       500
         1       188         1   62.4121       500
         1       188       200   62.4121       500
         1       189         1   62.2111       500
         1       189       200   62.2111       500
         1       190         1   62.0101       500
         1       190       200   62.0101       500
         1       191         1    61.809       500
         1       191       200    61.809       500
         1       192         1    61.608       500
         1       192       200    61.608       500
         1       193         1    61.407       500
         1       193       200    61.407       500
         1       194         1    61.206       500
         1       194       200    61.206       500
         1       195         1    61.005       500
         1       195       200    61.005       500
         1       196         1    60.804       500
         1       196       200    60.804       500
         1       197         1    60.603       500
         1       197       200    60.603       500
         1       198         1    60.402       500
         1       198       200    60.402       500
         1       199         1    60.201       500
         1       199       200    60.201       500
         1       200         1        60       500
         1       200       200        60       500
        -1         0 # stress period 2
        -1         0 # stress period 3
        -1         0 # stress period 4
        -1         0 # stress period 5
        -1         0 # stress period 6
        -1         0 # stress period 7
        -1         0 # stress period 8
        -1         0 # stress period 9
        -1         0 # stress period 10
