MODPATH_TIMESERIES_FILE 6 0                                                     
 2   0.365250000000000E+03
END HEADER
    0     1   0.000000000000000E+00          1     1   0.397000000000000E+04   0.344000000000000E+04   0.750000000000000E+02  1    1   30   25   0.8125000E+00   0.5000000E+00   0.5000000E+00
    0     1   0.000000000000000E+00          2     1   0.396990133642126E+04   0.344313952597603E+04   0.750000000000000E+02  1    1   30   25   0.8118834E+00   0.5196220E+00   0.5000000E+00
    0     1   0.000000000000000E+00          3     1   0.396960573506542E+04   0.344626666167751E+04   0.750000000000000E+02  1    1   30   25   0.8100358E+00   0.5391666E+00   0.5000000E+00
    0     1   0.000000000000000E+00          4     1   0.396911436253600E+04   0.344936906572804E+04   0.750000000000000E+02  1    1   30   25   0.8069648E+00   0.5585567E+00   0.5000000E+00
    0     1   0.000000000000000E+00          5     1   0.396842915805615E+04   0.345243449435756E+04   0.750000000000000E+02  1    1   30   25   0.8026822E+00   0.5777156E+00   0.5000000E+00
    0     1   0.000000000000000E+00          6     1   0.396755282581504E+04   0.345545084971935E+04   0.750000000000000E+02  1    1   30   25   0.7972052E+00   0.5965678E+00   0.5000000E+00
    0     1   0.000000000000000E+00          7     1   0.396648882429395E+04   0.345840622763336E+04   0.750000000000000E+02  1    1   30   25   0.7905552E+00   0.6150389E+00   0.5000000E+00
    0     1   0.000000000000000E+00          8     1   0.396524135262333E+04   0.346128896457702E+04   0.750000000000000E+02  1    1   30   25   0.7827585E+00   0.6330560E+00   0.5000000E+00
    0     1   0.000000000000000E+00          9     1   0.396381533400249E+04   0.346408768370375E+04   0.750000000000000E+02  1    1   30   25   0.7738458E+00   0.6505480E+00   0.5000000E+00
    0     1   0.000000000000000E+00         10     1   0.396221639627498E+04   0.346679133974761E+04   0.750000000000000E+02  1    1   30   25   0.7638525E+00   0.6674459E+00   0.5000000E+00
    0     1   0.000000000000000E+00         11     1   0.396045084971841E+04   0.346938926261291E+04   0.750000000000000E+02  1    1   30   25   0.7528178E+00   0.6836829E+00   0.5000000E+00
    0     1   0.000000000000000E+00         12     1   0.395852566213906E+04   0.347187119948864E+04   0.750000000000000E+02  1    1   30   25   0.7407854E+00   0.6991950E+00   0.5000000E+00
    0     1   0.000000000000000E+00         13     1   0.395644843137078E+04   0.347422735529765E+04   0.750000000000000E+02  1    1   30   25   0.7278027E+00   0.7139210E+00   0.5000000E+00
    0     1   0.000000000000000E+00         14     1   0.395422735529672E+04   0.347644843137264E+04   0.750000000000000E+02  1    1   30   25   0.7139210E+00   0.7278027E+00   0.5000000E+00
    0     1   0.000000000000000E+00         15     1   0.395187119948771E+04   0.347852566213906E+04   0.750000000000000E+02  1    1   30   25   0.6991950E+00   0.7407854E+00   0.5000000E+00
    0     1   0.000000000000000E+00         16     1   0.394938926261477E+04   0.348045084971935E+04   0.750000000000000E+02  1    1   30   25   0.6836829E+00   0.7528178E+00   0.5000000E+00
    0     1   0.000000000000000E+00         17     1   0.394679133974854E+04   0.348221639627591E+04   0.750000000000000E+02  1    1   30   25   0.6674459E+00   0.7638525E+00   0.5000000E+00
    0     1   0.000000000000000E+00         18     1   0.394408768370468E+04   0.348381533400342E+04   0.750000000000000E+02  1    1   30   25   0.6505480E+00   0.7738458E+00   0.5000000E+00
    0     1   0.000000000000000E+00         19     1   0.394128896457795E+04   0.348524135262147E+04   0.750000000000000E+02  1    1   30   25   0.6330560E+00   0.7827585E+00   0.5000000E+00
    0     1   0.000000000000000E+00         20     1   0.393840622763429E+04   0.348648882429302E+04   0.750000000000000E+02  1    1   30   25   0.6150389E+00   0.7905552E+00   0.5000000E+00
    0     1   0.000000000000000E+00         21     1   0.393545084971841E+04   0.348755282581598E+04   0.750000000000000E+02  1    1   30   25   0.5965678E+00   0.7972052E+00   0.5000000E+00
    0     1   0.000000000000000E+00         22     1   0.393243449435849E+04   0.348842915805802E+04   0.750000000000000E+02  1    1   30   25   0.5777156E+00   0.8026822E+00   0.5000000E+00
    0     1   0.000000000000000E+00         23     1   0.392936906572897E+04   0.348911436253786E+04   0.750000000000000E+02  1    1   30   25   0.5585567E+00   0.8069648E+00   0.5000000E+00
    0     1   0.000000000000000E+00         24     1   0.392626666167844E+04   0.348960573506728E+04   0.750000000000000E+02  1    1   30   25   0.5391666E+00   0.8100358E+00   0.5000000E+00
    0     1   0.000000000000000E+00         25     1   0.392313952597603E+04   0.348990133642033E+04   0.750000000000000E+02  1    1   30   25   0.5196220E+00   0.8118834E+00   0.5000000E+00
    0     1   0.000000000000000E+00         26     1   0.392000000000000E+04   0.349000000000000E+04   0.750000000000000E+02  1    1   30   25   0.5000000E+00   0.8125000E+00   0.5000000E+00
    0     1   0.000000000000000E+00         27     1   0.391686047402397E+04   0.348990133642033E+04   0.750000000000000E+02  1    1   30   25   0.4803780E+00   0.8118834E+00   0.5000000E+00
    0     1   0.000000000000000E+00         28     1   0.391373333832156E+04   0.348960573506728E+04   0.750000000000000E+02  1    1   30   25   0.4608334E+00   0.8100358E+00   0.5000000E+00
    0     1   0.000000000000000E+00         29     1   0.391063093427103E+04   0.348911436253786E+04   0.750000000000000E+02  1    1   30   25   0.4414433E+00   0.8069648E+00   0.5000000E+00
    0     1   0.000000000000000E+00         30     1   0.390756550564151E+04   0.348842915805802E+04   0.750000000000000E+02  1    1   30   25   0.4222844E+00   0.8026822E+00   0.5000000E+00
    0     1   0.000000000000000E+00         31     1   0.390454915028159E+04   0.348755282581598E+04   0.750000000000000E+02  1    1   30   25   0.4034322E+00   0.7972052E+00   0.5000000E+00
    0     1   0.000000000000000E+00         32     1   0.390159377236571E+04   0.348648882429302E+04   0.750000000000000E+02  1    1   30   25   0.3849611E+00   0.7905552E+00   0.5000000E+00
    0     1   0.000000000000000E+00         33     1   0.389871103542205E+04   0.348524135262147E+04   0.750000000000000E+02  1    1   30   25   0.3669440E+00   0.7827585E+00   0.5000000E+00
    0     1   0.000000000000000E+00         34     1   0.389591231629532E+04   0.348381533400342E+04   0.750000000000000E+02  1    1   30   25   0.3494520E+00   0.7738458E+00   0.5000000E+00
    0     1   0.000000000000000E+00         35     1   0.389320866025146E+04   0.348221639627591E+04   0.750000000000000E+02  1    1   30   25   0.3325541E+00   0.7638525E+00   0.5000000E+00
    0     1   0.000000000000000E+00         36     1   0.389061073738523E+04   0.348045084971935E+04   0.750000000000000E+02  1    1   30   25   0.3163171E+00   0.7528178E+00   0.5000000E+00
    0     1   0.000000000000000E+00         37     1   0.388812880051229E+04   0.347852566213906E+04   0.750000000000000E+02  1    1   30   25   0.3008050E+00   0.7407854E+00   0.5000000E+00
    0     1   0.000000000000000E+00         38     1   0.388577264470328E+04   0.347644843137264E+04   0.750000000000000E+02  1    1   30   25   0.2860790E+00   0.7278027E+00   0.5000000E+00
    0     1   0.000000000000000E+00         39     1   0.388355156862922E+04   0.347422735529765E+04   0.750000000000000E+02  1    1   30   25   0.2721973E+00   0.7139210E+00   0.5000000E+00
    0     1   0.000000000000000E+00         40     1   0.388147433786094E+04   0.347187119948864E+04   0.750000000000000E+02  1    1   30   25   0.2592146E+00   0.6991950E+00   0.5000000E+00
    0     1   0.000000000000000E+00         41     1   0.387954915028159E+04   0.346938926261291E+04   0.750000000000000E+02  1    1   30   25   0.2471822E+00   0.6836829E+00   0.5000000E+00
    0     1   0.000000000000000E+00         42     1   0.387778360372502E+04   0.346679133974761E+04   0.750000000000000E+02  1    1   30   25   0.2361475E+00   0.6674459E+00   0.5000000E+00
    0     1   0.000000000000000E+00         43     1   0.387618466599751E+04   0.346408768370375E+04   0.750000000000000E+02  1    1   30   25   0.2261542E+00   0.6505480E+00   0.5000000E+00
    0     1   0.000000000000000E+00         44     1   0.387475864737667E+04   0.346128896457702E+04   0.750000000000000E+02  1    1   30   25   0.2172415E+00   0.6330560E+00   0.5000000E+00
    0     1   0.000000000000000E+00         45     1   0.387351117570605E+04   0.345840622763336E+04   0.750000000000000E+02  1    1   30   25   0.2094448E+00   0.6150389E+00   0.5000000E+00
    0     1   0.000000000000000E+00         46     1   0.387244717418496E+04   0.345545084971935E+04   0.750000000000000E+02  1    1   30   25   0.2027948E+00   0.5965678E+00   0.5000000E+00
    0     1   0.000000000000000E+00         47     1   0.387157084194385E+04   0.345243449435756E+04   0.750000000000000E+02  1    1   30   25   0.1973178E+00   0.5777156E+00   0.5000000E+00
    0     1   0.000000000000000E+00         48     1   0.387088563746400E+04   0.344936906572804E+04   0.750000000000000E+02  1    1   30   25   0.1930352E+00   0.5585567E+00   0.5000000E+00
    0     1   0.000000000000000E+00         49     1   0.387039426493458E+04   0.344626666167751E+04   0.750000000000000E+02  1    1   30   25   0.1899642E+00   0.5391666E+00   0.5000000E+00
    0     1   0.000000000000000E+00         50     1   0.387009866357874E+04   0.344313952597603E+04   0.750000000000000E+02  1    1   30   25   0.1881166E+00   0.5196220E+00   0.5000000E+00
    0     1   0.000000000000000E+00         51     1   0.387000000000000E+04   0.344000000000000E+04   0.750000000000000E+02  1    1   30   25   0.1875000E+00   0.5000000E+00   0.5000000E+00
    0     1   0.000000000000000E+00         52     1   0.387009866357874E+04   0.343686047402397E+04   0.750000000000000E+02  1    1   30   25   0.1881166E+00   0.4803780E+00   0.5000000E+00
    0     1   0.000000000000000E+00         53     1   0.387039426493458E+04   0.343373333832249E+04   0.750000000000000E+02  1    1   30   25   0.1899642E+00   0.4608334E+00   0.5000000E+00
    0     1   0.000000000000000E+00         54     1   0.387088563746400E+04   0.343063093427196E+04   0.750000000000000E+02  1    1   30   25   0.1930352E+00   0.4414433E+00   0.5000000E+00
    0     1   0.000000000000000E+00         55     1   0.387157084194385E+04   0.342756550564244E+04   0.750000000000000E+02  1    1   30   25   0.1973178E+00   0.4222844E+00   0.5000000E+00
    0     1   0.000000000000000E+00         56     1   0.387244717418496E+04   0.342454915028065E+04   0.750000000000000E+02  1    1   30   25   0.2027948E+00   0.4034322E+00   0.5000000E+00
    0     1   0.000000000000000E+00         57     1   0.387351117570605E+04   0.342159377236664E+04   0.750000000000000E+02  1    1   30   25   0.2094448E+00   0.3849611E+00   0.5000000E+00
    0     1   0.000000000000000E+00         58     1   0.387475864737667E+04   0.341871103542298E+04   0.750000000000000E+02  1    1   30   25   0.2172415E+00   0.3669440E+00   0.5000000E+00
    0     1   0.000000000000000E+00         59     1   0.387618466599751E+04   0.341591231629625E+04   0.750000000000000E+02  1    1   30   25   0.2261542E+00   0.3494520E+00   0.5000000E+00
    0     1   0.000000000000000E+00         60     1   0.387778360372502E+04   0.341320866025239E+04   0.750000000000000E+02  1    1   30   25   0.2361475E+00   0.3325541E+00   0.5000000E+00
    0     1   0.000000000000000E+00         61     1   0.387954915028159E+04   0.341061073738709E+04   0.750000000000000E+02  1    1   30   25   0.2471822E+00   0.3163171E+00   0.5000000E+00
    0     1   0.000000000000000E+00         62     1   0.388147433786094E+04   0.340812880051136E+04   0.750000000000000E+02  1    1   30   25   0.2592146E+00   0.3008050E+00   0.5000000E+00
    0     1   0.000000000000000E+00         63     1   0.388355156862922E+04   0.340577264470235E+04   0.750000000000000E+02  1    1   30   25   0.2721973E+00   0.2860790E+00   0.5000000E+00
    0     1   0.000000000000000E+00         64     1   0.388577264470328E+04   0.340355156862736E+04   0.750000000000000E+02  1    1   30   25   0.2860790E+00   0.2721973E+00   0.5000000E+00
    0     1   0.000000000000000E+00         65     1   0.388812880051229E+04   0.340147433786094E+04   0.750000000000000E+02  1    1   30   25   0.3008050E+00   0.2592146E+00   0.5000000E+00
    0     1   0.000000000000000E+00         66     1   0.389061073738523E+04   0.339954915028065E+04   0.750000000000000E+02  1    1   30   25   0.3163171E+00   0.2471822E+00   0.5000000E+00
    0     1   0.000000000000000E+00         67     1   0.389320866025146E+04   0.339778360372409E+04   0.750000000000000E+02  1    1   30   25   0.3325541E+00   0.2361475E+00   0.5000000E+00
    0     1   0.000000000000000E+00         68     1   0.389591231629532E+04   0.339618466599658E+04   0.750000000000000E+02  1    1   30   25   0.3494520E+00   0.2261542E+00   0.5000000E+00
    0     1   0.000000000000000E+00         69     1   0.389871103542205E+04   0.339475864737853E+04   0.750000000000000E+02  1    1   30   25   0.3669440E+00   0.2172415E+00   0.5000000E+00
    0     1   0.000000000000000E+00         70     1   0.390159377236571E+04   0.339351117570698E+04   0.750000000000000E+02  1    1   30   25   0.3849611E+00   0.2094448E+00   0.5000000E+00
    0     1   0.000000000000000E+00         71     1   0.390454915028159E+04   0.339244717418402E+04   0.750000000000000E+02  1    1   30   25   0.4034322E+00   0.2027948E+00   0.5000000E+00
    0     1   0.000000000000000E+00         72     1   0.390756550564151E+04   0.339157084194198E+04   0.750000000000000E+02  1    1   30   25   0.4222844E+00   0.1973178E+00   0.5000000E+00
    0     1   0.000000000000000E+00         73     1   0.391063093427103E+04   0.339088563746214E+04   0.750000000000000E+02  1    1   30   25   0.4414433E+00   0.1930352E+00   0.5000000E+00
    0     1   0.000000000000000E+00         74     1   0.391373333832156E+04   0.339039426493272E+04   0.750000000000000E+02  1    1   30   25   0.4608334E+00   0.1899642E+00   0.5000000E+00
    0     1   0.000000000000000E+00         75     1   0.391686047402397E+04   0.339009866357967E+04   0.750000000000000E+02  1    1   30   25   0.4803780E+00   0.1881166E+00   0.5000000E+00
    0     1   0.000000000000000E+00         76     1   0.392000000000000E+04   0.339000000000000E+04   0.750000000000000E+02  1    1   30   25   0.5000000E+00   0.1875000E+00   0.5000000E+00
    0     1   0.000000000000000E+00         77     1   0.392313952597603E+04   0.339009866357967E+04   0.750000000000000E+02  1    1   30   25   0.5196220E+00   0.1881166E+00   0.5000000E+00
    0     1   0.000000000000000E+00         78     1   0.392626666167844E+04   0.339039426493272E+04   0.750000000000000E+02  1    1   30   25   0.5391666E+00   0.1899642E+00   0.5000000E+00
    0     1   0.000000000000000E+00         79     1   0.392936906572897E+04   0.339088563746214E+04   0.750000000000000E+02  1    1   30   25   0.5585567E+00   0.1930352E+00   0.5000000E+00
    0     1   0.000000000000000E+00         80     1   0.393243449435849E+04   0.339157084194198E+04   0.750000000000000E+02  1    1   30   25   0.5777156E+00   0.1973178E+00   0.5000000E+00
    0     1   0.000000000000000E+00         81     1   0.393545084971841E+04   0.339244717418402E+04   0.750000000000000E+02  1    1   30   25   0.5965678E+00   0.2027948E+00   0.5000000E+00
    0     1   0.000000000000000E+00         82     1   0.393840622763429E+04   0.339351117570698E+04   0.750000000000000E+02  1    1   30   25   0.6150389E+00   0.2094448E+00   0.5000000E+00
    0     1   0.000000000000000E+00         83     1   0.394128896457795E+04   0.339475864737853E+04   0.750000000000000E+02  1    1   30   25   0.6330560E+00   0.2172415E+00   0.5000000E+00
    0     1   0.000000000000000E+00         84     1   0.394408768370468E+04   0.339618466599658E+04   0.750000000000000E+02  1    1   30   25   0.6505480E+00   0.2261542E+00   0.5000000E+00
    0     1   0.000000000000000E+00         85     1   0.394679133974854E+04   0.339778360372409E+04   0.750000000000000E+02  1    1   30   25   0.6674459E+00   0.2361475E+00   0.5000000E+00
    0     1   0.000000000000000E+00         86     1   0.394938926261477E+04   0.339954915028065E+04   0.750000000000000E+02  1    1   30   25   0.6836829E+00   0.2471822E+00   0.5000000E+00
    0     1   0.000000000000000E+00         87     1   0.395187119948771E+04   0.340147433786094E+04   0.750000000000000E+02  1    1   30   25   0.6991950E+00   0.2592146E+00   0.5000000E+00
    0     1   0.000000000000000E+00         88     1   0.395422735529672E+04   0.340355156862736E+04   0.750000000000000E+02  1    1   30   25   0.7139210E+00   0.2721973E+00   0.5000000E+00
    0     1   0.000000000000000E+00         89     1   0.395644843137078E+04   0.340577264470235E+04   0.750000000000000E+02  1    1   30   25   0.7278027E+00   0.2860790E+00   0.5000000E+00
    0     1   0.000000000000000E+00         90     1   0.395852566213906E+04   0.340812880051136E+04   0.750000000000000E+02  1    1   30   25   0.7407854E+00   0.3008050E+00   0.5000000E+00
    0     1   0.000000000000000E+00         91     1   0.396045084971841E+04   0.341061073738709E+04   0.750000000000000E+02  1    1   30   25   0.7528178E+00   0.3163171E+00   0.5000000E+00
    0     1   0.000000000000000E+00         92     1   0.396221639627498E+04   0.341320866025239E+04   0.750000000000000E+02  1    1   30   25   0.7638525E+00   0.3325541E+00   0.5000000E+00
    0     1   0.000000000000000E+00         93     1   0.396381533400249E+04   0.341591231629625E+04   0.750000000000000E+02  1    1   30   25   0.7738458E+00   0.3494520E+00   0.5000000E+00
    0     1   0.000000000000000E+00         94     1   0.396524135262333E+04   0.341871103542298E+04   0.750000000000000E+02  1    1   30   25   0.7827585E+00   0.3669440E+00   0.5000000E+00
    0     1   0.000000000000000E+00         95     1   0.396648882429395E+04   0.342159377236664E+04   0.750000000000000E+02  1    1   30   25   0.7905552E+00   0.3849611E+00   0.5000000E+00
    0     1   0.000000000000000E+00         96     1   0.396755282581504E+04   0.342454915028065E+04   0.750000000000000E+02  1    1   30   25   0.7972052E+00   0.4034322E+00   0.5000000E+00
    0     1   0.000000000000000E+00         97     1   0.396842915805615E+04   0.342756550564244E+04   0.750000000000000E+02  1    1   30   25   0.8026822E+00   0.4222844E+00   0.5000000E+00
    0     1   0.000000000000000E+00         98     1   0.396911436253600E+04   0.343063093427196E+04   0.750000000000000E+02  1    1   30   25   0.8069648E+00   0.4414433E+00   0.5000000E+00
    0     1   0.000000000000000E+00         99     1   0.396960573506542E+04   0.343373333832249E+04   0.750000000000000E+02  1    1   30   25   0.8100358E+00   0.4608334E+00   0.5000000E+00
    0     1   0.000000000000000E+00        100     1   0.396990133642126E+04   0.343686047402397E+04   0.750000000000000E+02  1    1   30   25   0.8118834E+00   0.4803780E+00   0.5000000E+00
    1     1   0.365200000000000E+03          1     1   0.448903647600977E+04   0.360188397333788E+04   0.750000000000000E+02  1    1   29   29   0.5647798E-01   0.5117748E+00   0.5000000E+00
    1     1   0.365200000000000E+03          2     1   0.448336776154706E+04   0.362543290046130E+04   0.750000000000000E+02  1    1   29   29   0.2104851E-01   0.6589556E+00   0.5000000E+00
    1     1   0.365200000000000E+03          3     1   0.447709930363089E+04   0.364826220656911E+04   0.750000000000000E+02  1    1   29   28   0.9818706E+00   0.8016388E+00   0.5000000E+00
    1     1   0.365200000000000E+03          4     1   0.446971015999659E+04   0.366990075177797E+04   0.750000000000000E+02  1    1   29   28   0.9356885E+00   0.9368797E+00   0.5000000E+00
    1     1   0.365200000000000E+03          5     1   0.445874066259141E+04   0.369098031681878E+04   0.750000000000000E+02  1    1   28   28   0.8671291E+00   0.6862698E-01   0.5000000E+00
    1     1   0.365200000000000E+03          6     1   0.444410765099750E+04   0.371156432708225E+04   0.750000000000000E+02  1    1   28   28   0.7756728E+00   0.1972770E+00   0.5000000E+00
    1     1   0.365200000000000E+03          7     1   0.443140483730346E+04   0.373508395779252E+04   0.750000000000000E+02  1    1   28   28   0.6962802E+00   0.3442747E+00   0.5000000E+00
    1     1   0.365200000000000E+03          8     1   0.441655731432288E+04   0.375806448291102E+04   0.750000000000000E+02  1    1   28   28   0.6034832E+00   0.4879030E+00   0.5000000E+00
    1     1   0.365200000000000E+03          9     1   0.440169525977553E+04   0.378288652034572E+04   0.750000000000000E+02  1    1   28   28   0.5105954E+00   0.6430408E+00   0.5000000E+00
    1     1   0.365200000000000E+03         10     1   0.438469832393172E+04   0.380798402662510E+04   0.750000000000000E+02  1    1   28   28   0.4043645E+00   0.7999002E+00   0.5000000E+00
    1     1   0.365200000000000E+03         11     1   0.436439387962070E+04   0.383275163771072E+04   0.750000000000000E+02  1    1   28   28   0.2774617E+00   0.9546977E+00   0.5000000E+00
    1     1   0.365200000000000E+03         12     1   0.433553489725925E+04   0.385708101429893E+04   0.750000000000000E+02  1    1   27   28   0.9709311E-01   0.1067563E+00   0.5000000E+00
    1     1   0.365200000000000E+03         13     1   0.430362988353025E+04   0.388137202605141E+04   0.750000000000000E+02  1    1   27   27   0.8976868E+00   0.2585752E+00   0.5000000E+00
    1     1   0.365200000000000E+03         14     1   0.427593629855461E+04   0.391110319563927E+04   0.750000000000000E+02  1    1   27   27   0.7246019E+00   0.4443950E+00   0.5000000E+00
    1     1   0.365200000000000E+03         15     1   0.424936847137385E+04   0.393670226242907E+04   0.750000000000000E+02  1    1   27   27   0.5585529E+00   0.6043891E+00   0.5000000E+00
    1     1   0.365200000000000E+03         16     1   0.422325608813149E+04   0.395791410010104E+04   0.750000000000000E+02  1    1   27   27   0.3953506E+00   0.7369631E+00   0.5000000E+00
    1     1   0.365200000000000E+03         17     1   0.419960573067165E+04   0.397896248108223E+04   0.750000000000000E+02  1    1   27   27   0.2475358E+00   0.8685155E+00   0.5000000E+00
    1     1   0.365200000000000E+03         18     1   0.417565231384433E+04   0.399605991581197E+04   0.750000000000000E+02  1    1   27   27   0.9782696E-01   0.9753745E+00   0.5000000E+00
    1     1   0.365200000000000E+03         19     1   0.415030249260842E+04   0.400736080116679E+04   0.750000000000000E+02  1    1   26   26   0.9393906E+00   0.4600501E-01   0.5000000E+00
    1     1   0.365200000000000E+03         20     1   0.412673497258236E+04   0.401623746647520E+04   0.750000000000000E+02  1    1   26   26   0.7920936E+00   0.1014842E+00   0.5000000E+00
    1     1   0.365200000000000E+03         21     1   0.410465661285985E+04   0.402704024348459E+04   0.750000000000000E+02  1    1   26   26   0.6541038E+00   0.1690015E+00   0.5000000E+00
    1     1   0.365200000000000E+03         22     1   0.408256048322786E+04   0.403605366382979E+04   0.750000000000000E+02  1    1   26   26   0.5160030E+00   0.2253354E+00   0.5000000E+00
    1     1   0.365200000000000E+03         23     1   0.406029446086240E+04   0.404315158889465E+04   0.750000000000000E+02  1    1   26   26   0.3768404E+00   0.2696974E+00   0.5000000E+00
    1     1   0.365200000000000E+03         24     1   0.403872953483067E+04   0.405170810096483E+04   0.750000000000000E+02  1    1   26   26   0.2420596E+00   0.3231756E+00   0.5000000E+00
    1     1   0.365200000000000E+03         25     1   0.401663571581235E+04   0.405805832888881E+04   0.750000000000000E+02  1    1   26   26   0.1039732E+00   0.3628646E+00   0.5000000E+00
    1     1   0.365200000000000E+03         26     1   0.399426694244797E+04   0.406212337213478E+04   0.750000000000000E+02  1    1   26   25   0.9641684E+00   0.3882711E+00   0.5000000E+00
    1     1   0.365200000000000E+03         27     1   0.397179989825800E+04   0.406209017355515E+04   0.750000000000000E+02  1    1   26   25   0.8237494E+00   0.3880636E+00   0.5000000E+00
    1     1   0.365200000000000E+03         28     1   0.394921726222702E+04   0.406199033971084E+04   0.750000000000000E+02  1    1   26   25   0.6826079E+00   0.3874396E+00   0.5000000E+00
    1     1   0.365200000000000E+03         29     1   0.392636470987031E+04   0.406182314945640E+04   0.750000000000000E+02  1    1   26   25   0.5397794E+00   0.3863947E+00   0.5000000E+00
    1     1   0.365200000000000E+03         30     1   0.390307995026876E+04   0.406158737773087E+04   0.750000000000000E+02  1    1   26   25   0.3942497E+00   0.3849211E+00   0.5000000E+00
    1     1   0.365200000000000E+03         31     1   0.387918773235538E+04   0.406128125930480E+04   0.750000000000000E+02  1    1   26   25   0.2449233E+00   0.3830079E+00   0.5000000E+00
    1     1   0.365200000000000E+03         32     1   0.385449400188553E+04   0.406090243483707E+04   0.750000000000000E+02  1    1   26   25   0.9058751E-01   0.3806402E+00   0.5000000E+00
    1     1   0.365200000000000E+03         33     1   0.382639316788246E+04   0.403223635395935E+04   0.750000000000000E+02  1    1   26   24   0.9149573E+00   0.2014772E+00   0.5000000E+00
    1     1   0.365200000000000E+03         34     1   0.379736963053207E+04   0.401188416361448E+04   0.750000000000000E+02  1    1   26   24   0.7335602E+00   0.7427602E-01   0.5000000E+00
    1     1   0.365200000000000E+03         35     1   0.376787756821336E+04   0.399866954596347E+04   0.750000000000000E+02  1    1   27   24   0.5492348E+00   0.9916847E+00   0.5000000E+00
    1     1   0.365200000000000E+03         36     1   0.373817047839088E+04   0.398878632114325E+04   0.750000000000000E+02  1    1   27   24   0.3635655E+00   0.9299145E+00   0.5000000E+00
    1     1   0.365200000000000E+03         37     1   0.370728551240968E+04   0.397632839466596E+04   0.750000000000000E+02  1    1   27   24   0.1705345E+00   0.8520525E+00   0.5000000E+00
    1     1   0.365200000000000E+03         38     1   0.367510987663162E+04   0.395698951038315E+04   0.750000000000000E+02  1    1   27   23   0.9694367E+00   0.7311844E+00   0.5000000E+00
    1     1   0.365200000000000E+03         39     1   0.364100536457312E+04   0.391251557155828E+04   0.750000000000000E+02  1    1   27   23   0.7562835E+00   0.4532223E+00   0.5000000E+00
    1     1   0.365200000000000E+03         40     1   0.360220183384922E+04   0.387987222224868E+04   0.750000000000000E+02  1    1   27   23   0.5137615E+00   0.2492014E+00   0.5000000E+00
    1     1   0.365200000000000E+03         41     1   0.356768673920040E+04   0.385246652989658E+04   0.750000000000000E+02  1    1   27   23   0.2980421E+00   0.7791581E-01   0.5000000E+00
    1     1   0.365200000000000E+03         42     1   0.353709923138632E+04   0.383338692015691E+04   0.750000000000000E+02  1    1   28   23   0.1068702E+00   0.9586683E+00   0.5000000E+00
    1     1   0.365200000000000E+03         43     1   0.351383268749748E+04   0.381068853486931E+04   0.750000000000000E+02  1    1   28   22   0.9614543E+00   0.8168033E+00   0.5000000E+00
    1     1   0.365200000000000E+03         44     1   0.349407049759131E+04   0.378009605704212E+04   0.750000000000000E+02  1    1   28   22   0.8379406E+00   0.6256004E+00   0.5000000E+00
    1     1   0.365200000000000E+03         45     1   0.347735169248415E+04   0.374855759105225E+04   0.750000000000000E+02  1    1   28   22   0.7334481E+00   0.4284849E+00   0.5000000E+00
    1     1   0.365200000000000E+03         46     1   0.346034563989120E+04   0.371952059499629E+04   0.750000000000000E+02  1    1   28   22   0.6271602E+00   0.2470037E+00   0.5000000E+00
    1     1   0.365200000000000E+03         47     1   0.344199902127070E+04   0.369370791136565E+04   0.750000000000000E+02  1    1   28   22   0.5124939E+00   0.8567445E-01   0.5000000E+00
    1     1   0.365200000000000E+03         48     1   0.342648702424265E+04   0.366990942586532E+04   0.750000000000000E+02  1    1   29   22   0.4155439E+00   0.9369339E+00   0.5000000E+00
    1     1   0.365200000000000E+03         49     1   0.341697637524821E+04   0.364541423758221E+04   0.750000000000000E+02  1    1   29   22   0.3561023E+00   0.7838390E+00   0.5000000E+00
    1     1   0.365200000000000E+03         50     1   0.340847569452865E+04   0.362003810475037E+04   0.750000000000000E+02  1    1   29   22   0.3029731E+00   0.6252382E+00   0.5000000E+00
    1     1   0.365200000000000E+03         51     1   0.340126183323390E+04   0.359339376693712E+04   0.750000000000000E+02  1    1   29   22   0.2578865E+00   0.4587110E+00   0.5000000E+00
    1     1   0.365200000000000E+03         52     1   0.339191701572939E+04   0.356768811218156E+04   0.750000000000000E+02  1    1   29   22   0.1994813E+00   0.2980507E+00   0.5000000E+00
    1     1   0.365200000000000E+03         53     1   0.338288458821757E+04   0.354078009612501E+04   0.750000000000000E+02  1    1   29   22   0.1430287E+00   0.1298756E+00   0.5000000E+00
    1     1   0.365200000000000E+03         54     1   0.337705023976759E+04   0.351193061065587E+04   0.750000000000000E+02  1    1   30   22   0.1065640E+00   0.9495663E+00   0.5000000E+00
    1     1   0.365200000000000E+03         55     1   0.337725194308337E+04   0.348200355241431E+04   0.750000000000000E+02  1    1   30   22   0.1078246E+00   0.7625222E+00   0.5000000E+00
    1     1   0.365200000000000E+03         56     1   0.337751446300476E+04   0.345122913752860E+04   0.750000000000000E+02  1    1   30   22   0.1094654E+00   0.5701821E+00   0.5000000E+00